1uak
 OpenBabel02262516413D

 51 53  0  0  0  0  0  0  0  0999 V2000
  -33.6778   11.0133  -27.4871 C   0  0  1  0  0  0  0  0  0  0  0  0
  -34.3315   11.9065  -26.5568 O   0  0  0  0  0  0  0  0  0  0  0  0
  -34.4400   13.2394  -27.1330 C   0  0  2  0  0  0  0  0  0  0  0  0
  -33.8794   13.1551  -28.5455 C   0  0  1  0  0  0  0  0  0  0  0  0
  -33.8298   11.6491  -28.8579 C   0  0  2  0  0  0  0  0  0  0  0  0
  -35.0282   11.1318  -29.4462 O   0  0  0  0  0  0  0  0  0  0  0  0
  -34.6398   13.8582  -29.5365 O   0  0  0  0  0  0  0  0  0  0  0  0
  -33.7310   14.1558  -26.2405 N   0  0  0  0  0  0  0  0  0  0  0  0
  -34.1479   15.3499  -25.6976 C   0  0  0  0  0  0  0  0  0  0  0  0
  -35.3718   15.9078  -25.7210 N   0  0  0  0  0  0  0  0  0  0  0  0
  -35.3550   17.1072  -25.0762 C   0  0  0  0  0  0  0  0  0  0  0  0
  -34.3072   17.7707  -24.5407 N   0  0  0  0  0  0  0  0  0  0  0  0
  -33.0904   17.1831  -24.5899 C   0  0  0  0  0  0  0  0  0  0  0  0
  -32.9998   15.8901  -25.1278 C   0  0  0  0  0  0  0  0  0  0  0  0
  -31.9492   15.0022  -25.1886 N   0  0  0  0  0  0  0  0  0  0  0  0
  -32.4464   13.9463  -25.7875 C   0  0  0  0  0  0  0  0  0  0  0  0
  -31.9915   17.8714  -24.0891 N   0  0  0  0  0  0  0  0  0  0  0  0
  -32.2331   10.7886  -27.0898 C   0  0  0  0  0  0  0  0  0  0  0  0
  -31.0287   11.1846  -28.3669 S   0  0  1  0  0  0  0  0  0  0  0  0
  -31.9747   10.7652  -29.8214 C   0  0  0  0  0  0  0  0  0  0  0  0
  -30.6215   12.9091  -28.6127 C   0  0  0  0  0  0  0  0  0  0  0  0
  -29.4418   13.4331  -29.4710 C   0  0  0  0  0  0  0  0  0  0  0  0
  -27.8533   13.5905  -31.4319 N   0  3  0  0  0  0  0  0  0  0  0  0
  -29.1576   12.9955  -30.9351 C   0  0  2  0  0  0  0  0  0  0  0  0
  -30.2298   13.4286  -31.9622 C   0  0  0  0  0  0  0  0  0  0  0  0
  -31.1433   14.2028  -31.7414 O   0  0  0  0  0  0  0  0  0  0  0  0
  -30.0629   12.7972  -33.1593 O   0  5  0  0  0  0  0  0  0  0  0  0
  -34.1184   10.0382  -27.4904 H   0  0  0  0  0  0  0  0  0  0  0  0
  -35.4401   13.6104  -27.2170 H   0  0  0  0  0  0  0  0  0  0  0  0
  -32.9227   13.6328  -28.5827 H   0  0  0  0  0  0  0  0  0  0  0  0
  -33.0499   11.4477  -29.5623 H   0  0  0  0  0  0  0  0  0  0  0  0
  -35.7754   11.2871  -28.8475 H   0  0  0  0  0  0  0  0  0  0  0  0
  -35.5365   13.4904  -29.5771 H   0  0  0  0  0  0  0  0  0  0  0  0
  -36.2705   17.5744  -24.9838 H   0  0  0  0  0  0  0  0  0  0  0  0
  -31.9334   13.0587  -25.9061 H   0  0  0  0  0  0  0  0  0  0  0  0
  -32.1041   18.7776  -23.7213 H   0  0  0  0  0  0  0  0  0  0  0  0
  -31.1006   17.4527  -24.1022 H   0  0  0  0  0  0  0  0  0  0  0  0
  -32.0244   11.3976  -26.2351 H   0  0  0  0  0  0  0  0  0  0  0  0
  -32.1334    9.7410  -26.8963 H   0  0  0  0  0  0  0  0  0  0  0  0
  -29.8524   10.5684  -28.0733 H   0  0  0  0  0  0  0  0  0  0  0  0
  -32.8588   11.3669  -29.8576 H   0  0  0  0  0  0  0  0  0  0  0  0
  -32.2481    9.7314  -29.7832 H   0  0  0  0  0  0  0  0  0  0  0  0
  -31.3842   10.9459  -30.6953 H   0  0  0  0  0  0  0  0  0  0  0  0
  -31.4994   13.3516  -29.0350 H   0  0  0  0  0  0  0  0  0  0  0  0
  -30.2748   13.1656  -27.6335 H   0  0  0  0  0  0  0  0  0  0  0  0
  -29.5611   14.4959  -29.5061 H   0  0  0  0  0  0  0  0  0  0  0  0
  -28.6129   12.9840  -28.9649 H   0  0  0  0  0  0  0  0  0  0  0  0
  -27.0995   13.3391  -30.7924 H   0  0  0  0  0  0  0  0  0  0  0  0
  -27.9377   14.6061  -31.4755 H   0  0  0  0  0  0  0  0  0  0  0  0
  -27.6459   13.2264  -32.3618 H   0  0  0  0  0  0  0  0  0  0  0  0
  -29.1392   11.9271  -30.8796 H   0  0  0  0  0  0  0  0  0  0  0  0
  1  2  1  0  0  0  0
  1  5  1  0  0  0  0
  1 28  1  1  0  0  0
  2  3  1  0  0  0  0
  3  4  1  0  0  0  0
  3  8  1  0  0  0  0
  3 29  1  6  0  0  0
  4  5  1  0  0  0  0
  4  7  1  0  0  0  0
  4 30  1  1  0  0  0
  5  6  1  0  0  0  0
  5 31  1  6  0  0  0
  6 32  1  0  0  0  0
  7 33  1  0  0  0  0
  8  9  1  0  0  0  0
  8 16  1  0  0  0  0
  9 10  1  0  0  0  0
  9 14  2  0  0  0  0
 10 11  2  0  0  0  0
 11 12  1  0  0  0  0
 11 34  1  0  0  0  0
 12 13  2  0  0  0  0
 13 14  1  0  0  0  0
 13 17  1  0  0  0  0
 14 15  1  0  0  0  0
 15 16  2  0  0  0  0
 16 35  1  0  0  0  0
 17 36  1  0  0  0  0
 17 37  1  0  0  0  0
 18  1  1  0  0  0  0
 18 38  1  0  0  0  0
 18 39  1  0  0  0  0
 19 18  1  0  0  0  0
 19 20  1  0  0  0  0
 19 21  1  0  0  0  0
 19 40  1  1  0  0  0
 20 41  1  0  0  0  0
 20 42  1  0  0  0  0
 20 43  1  0  0  0  0
 21 44  1  0  0  0  0
 21 45  1  0  0  0  0
 22 21  1  0  0  0  0
 22 46  1  0  0  0  0
 22 47  1  0  0  0  0
 23 48  1  0  0  0  0
 23 49  1  0  0  0  0
 23 50  1  0  0  0  0
 24 22  1  0  0  0  0
 24 25  1  0  0  0  0
 24 23  1  0  0  0  0
 24 51  1  6  0  0  0
 25 26  2  0  0  0  0
 25 27  1  0  0  0  0
M  CHG  2  23   1  27  -1
M  END
>  <minimizedAffinity>
-10.27412

>  <CNNscore>
0.9346450567

>  <CNNaffinity>
6.3285751343

>  <CNN_VS>
5.9149713516

>  <CNNaffinity_variance>
0.9287953973

$$$$
