MODEL 1
REMARK VINA RESULT:   -18.116      0.000      0.000
REMARK INTER + INTRA:         -22.652
REMARK INTER:                 -22.051
REMARK INTRA:                  -0.601
REMARK UNBOUND:                -0.299
REMARK Flexibility Score: inf
REMARK Active torsions [ 4 ] -> [ 4 ]
ROOT
ATOM      1  C1  LIG L   1      -0.461  -2.745  -2.756  1.00  0.00     0.172 C 
ATOM      2  N1  LIG L   1       1.224  -1.785  -3.805  1.00  0.00     0.244 N 
ATOM      3  O1  LIG L   1      -1.258  -3.062  -0.054  1.00  0.00    -0.269 OA
ATOM      4  C2  LIG L   1       0.139  -2.462  -3.858  1.00  0.00     0.112 C 
ATOM      5  N2  LIG L   1       0.011  -2.347  -1.612  1.00  0.00    -0.245 N 
ATOM      6  C3  LIG L   1       1.824  -1.367  -2.708  1.00  0.00     0.164 C 
ATOM      7  N3  LIG L   1       1.508  -1.297  -0.389  1.00  0.00     0.256 N 
ATOM      8  C4  LIG L   1       1.197  -1.616  -1.569  1.00  0.00     0.213 C 
ATOM      9  C5  LIG L   1      -0.304  -2.430  -0.376  1.00  0.00     0.268 C 
ATOM     10  C6  LIG L   1       0.585  -1.818   0.379  1.00  0.00     0.157 C 
ATOM     11  H1  LIG L   1       1.038  -0.939  -4.346  1.00  0.00     0.203 HD
ATOM     12  H2  LIG L   1       1.889  -2.496  -4.107  1.00  0.00     0.203 HD
ATOM     13  H3  LIG L   1       1.522  -0.282  -0.289  1.00  0.00     0.204 HD
ATOM     14  H4  LIG L   1       2.438  -1.638  -0.143  1.00  0.00     0.204 HD
ENDROOT
BRANCH    4   15
ATOM     15  C7  LIG L   1      -0.411  -2.966  -5.059  1.00  0.00     0.002 A 
ATOM     16  C8  LIG L   1      -1.211  -3.922  -5.104  1.00  0.00     0.009 A 
ATOM     17  C9  LIG L   1      -0.035  -2.493  -6.102  1.00  0.00     0.009 A 
ATOM     18 C10  LIG L   1      -1.679  -4.381  -6.137  1.00  0.00     0.000 A 
ATOM     19 C11  LIG L   1      -0.468  -2.898  -7.114  1.00  0.00     0.000 A 
ATOM     20 C12  LIG L   1      -1.313  -3.848  -7.108  1.00  0.00     0.000 A 
ENDBRANCH    4   15
BRANCH    6   21
ATOM     21 C13  LIG L   1       2.977  -0.657  -2.745  1.00  0.00     0.007 A 
ATOM     22 C14  LIG L   1       3.226   0.228  -3.562  1.00  0.00     0.009 A 
ATOM     23 C15  LIG L   1       3.856  -0.866  -1.929  1.00  0.00     0.009 A 
ATOM     24 C16  LIG L   1       4.272   0.843  -3.465  1.00  0.00     0.000 A 
ATOM     25 C17  LIG L   1       5.031  -0.269  -1.970  1.00  0.00     0.000 A 
ATOM     26 C18  LIG L   1       5.242   0.558  -2.669  1.00  0.00     0.000 A 
ENDBRANCH    6   21
BRANCH   10   27
ATOM     27 C19  LIG L   1       0.537  -1.713   1.766  1.00  0.00     0.099 C 
BRANCH   27   28
ATOM     28 C20  LIG L   1      -0.156  -0.655   2.284  1.00  0.00    -0.042 A 
ATOM     29 C21  LIG L   1       0.307   0.437   2.231  1.00  0.00     0.004 A 
ATOM     30 C22  LIG L   1      -1.280  -0.763   2.883  1.00  0.00     0.004 A 
ATOM     31 C23  LIG L   1      -0.355   1.452   2.771  1.00  0.00     0.000 A 
ATOM     32 C24  LIG L   1      -1.822   0.236   3.366  1.00  0.00     0.000 A 
ATOM     33 C25  LIG L   1      -1.324   1.380   3.313  1.00  0.00     0.000 A 
ENDBRANCH   27   28
ENDBRANCH   10   27
TORSDOF 4
ENDMDL
