examples/luxsit/0_docked.pdbqt
 OpenBabel01122516383D

 29 33  0  0  1  0  0  0  0  0999 V2000
   -0.4610   -2.7450   -2.7560 C   0  0  0  0  0  3  0  0  0  0  0  0
    1.2240   -1.7850   -3.8050 N   0  0  0  0  0  4  0  0  0  0  0  0
   -1.2580   -3.0620   -0.0540 O   0  0  0  0  0  0  0  0  0  0  0  0
    0.1390   -2.4620   -3.8580 C   0  0  0  0  0  0  0  0  0  0  0  0
    0.0110   -2.3470   -1.6120 N   0  0  0  0  0  0  0  0  0  0  0  0
    1.8240   -1.3670   -2.7080 C   0  0  0  0  0  0  0  0  0  0  0  0
    1.5080   -1.2970   -0.3890 N   0  0  0  0  0  4  0  0  0  0  0  0
    1.1970   -1.6160   -1.5690 C   0  0  0  0  0  0  0  0  0  0  0  0
   -0.3040   -2.4300   -0.3760 C   0  0  0  0  0  0  0  0  0  0  0  0
    0.5850   -1.8180    0.3790 C   0  0  2  0  0  3  0  0  0  0  0  0
   -0.4110   -2.9660   -5.0590 C   0  0  0  0  0  0  0  0  0  0  0  0
   -1.2110   -3.9220   -5.1040 C   0  0  0  0  0  3  0  0  0  0  0  0
   -0.0350   -2.4930   -6.1020 C   0  0  0  0  0  3  0  0  0  0  0  0
   -1.6790   -4.3810   -6.1370 C   0  0  0  0  0  3  0  0  0  0  0  0
   -0.4680   -2.8980   -7.1140 C   0  0  0  0  0  3  0  0  0  0  0  0
   -1.3130   -3.8480   -7.1080 C   0  0  0  0  0  3  0  0  0  0  0  0
    2.9770   -0.6570   -2.7450 C   0  0  0  0  0  0  0  0  0  0  0  0
    3.2260    0.2280   -3.5620 C   0  0  0  0  0  3  0  0  0  0  0  0
    3.8560   -0.8660   -1.9290 C   0  0  0  0  0  3  0  0  0  0  0  0
    4.2720    0.8430   -3.4650 C   0  0  0  0  0  3  0  0  0  0  0  0
    5.0310   -0.2690   -1.9700 C   0  0  0  0  0  3  0  0  0  0  0  0
    5.2420    0.5580   -2.6690 C   0  0  0  0  0  3  0  0  0  0  0  0
    0.5370   -1.7130    1.7660 C   0  0  0  0  0  2  0  0  0  0  0  0
   -0.1560   -0.6550    2.2840 C   0  0  0  0  0  0  0  0  0  0  0  0
    0.3070    0.4370    2.2310 C   0  0  0  0  0  3  0  0  0  0  0  0
   -1.2800   -0.7630    2.8830 C   0  0  0  0  0  3  0  0  0  0  0  0
   -0.3550    1.4520    2.7710 C   0  0  0  0  0  3  0  0  0  0  0  0
   -1.8220    0.2360    3.3660 C   0  0  0  0  0  3  0  0  0  0  0  0
   -1.3240    1.3800    3.3130 C   0  0  0  0  0  3  0  0  0  0  0  0
  1  5  1  0  0  0  0
  2  6  1  0  0  0  0
  4  2  1  0  0  0  0
  4  1  2  0  0  0  0
  5  8  1  0  0  0  0
  5  9  1  0  0  0  0
  6  8  2  0  0  0  0
  7 10  1  0  0  0  0
  8  7  1  0  0  0  0
  9  3  2  0  0  0  0
  9 10  1  0  0  0  0
 10 23  1  6  0  0  0
 11  4  1  0  0  0  0
 12 11  1  0  0  0  0
 13 11  2  0  0  0  0
 14 12  2  0  0  0  0
 15 16  2  0  0  0  0
 15 13  1  0  0  0  0
 16 14  1  0  0  0  0
 17  6  1  0  0  0  0
 17 19  1  0  0  0  0
 18 20  1  0  0  0  0
 18 17  2  0  0  0  0
 20 22  2  0  0  0  0
 21 19  2  0  0  0  0
 22 21  1  0  0  0  0
 23 24  1  0  0  0  0
 24 26  1  0  0  0  0
 25 24  2  0  0  0  0
 25 27  1  0  0  0  0
 26 28  2  0  0  0  0
 27 29  2  0  0  0  0
 29 28  1  0  0  0  0
M  END
>  <MODEL>
1

>  <REMARK>
 VINA RESULT:   -18.116      0.000      0.000
 INTER + INTRA:         -22.652
 INTER:                 -22.051
 INTRA:                  -0.601
 UNBOUND:                -0.299
 Flexibility Score: inf
 Active torsions [ 4 ] -> [ 4 ]

>  <TORSDO>
F 4

$$$$
