
     RDKit          3D

 29 33  0  0  0  0  0  0  0  0999 V2000
   -1.1940   -0.8030    0.0833 C   0  0  0  0  0  0  0  0  0  0  0  0
    0.6274    0.4252    0.0494 N   0  0  0  0  0  0  0  0  0  0  0  0
   -2.1635   -3.0462   -1.3547 O   0  0  0  0  0  0  0  0  0  0  0  0
   -0.5235    0.1863    0.5521 C   0  0  0  0  0  0  0  0  0  0  0  0
   -0.7129   -1.5591   -0.8718 N   0  0  0  0  0  0  0  0  0  0  0  0
    1.2082   -0.2345   -0.9409 C   0  0  0  0  0  0  0  0  0  0  0  0
    0.8544   -2.1111   -2.2992 N   0  0  0  0  0  0  0  0  0  0  0  0
    0.5475   -1.2826   -1.4056 C   0  0  0  0  0  0  0  0  0  0  0  0
   -1.0695   -2.5828   -1.5429 C   0  0  0  0  0  0  0  0  0  0  0  0
   -0.1462   -2.9295   -2.4123 C   0  0  0  0  0  0  0  0  0  0  0  0
   -0.2133   -4.0053   -3.3010 C   0  0  0  0  0  0  0  0  0  0  0  0
   -0.9817   -3.8263   -4.4284 C   0  0  0  0  0  0  0  0  0  0  0  0
   -0.4693   -3.9002   -5.4945 C   0  0  0  0  0  0  0  0  0  0  0  0
   -1.1792   -3.7005   -6.5844 C   0  0  0  0  0  0  0  0  0  0  0  0
   -2.2574   -3.4360   -6.6012 C   0  0  0  0  0  0  0  0  0  0  0  0
   -2.8163   -3.3634   -5.4708 C   0  0  0  0  0  0  0  0  0  0  0  0
   -2.2223   -3.5433   -4.4104 C   0  0  0  0  0  0  0  0  0  0  0  0
    2.4480    0.0925   -1.4143 C   0  0  0  0  0  0  0  0  0  0  0  0
    2.7338    0.2422   -2.6241 C   0  0  0  0  0  0  0  0  0  0  0  0
    3.8367    0.5895   -2.9160 C   0  0  0  0  0  0  0  0  0  0  0  0
    4.8390    0.6800   -2.1135 C   0  0  0  0  0  0  0  0  0  0  0  0
    4.6042    0.4966   -1.0361 C   0  0  0  0  0  0  0  0  0  0  0  0
    3.3682    0.2640   -0.6349 C   0  0  0  0  0  0  0  0  0  0  0  0
   -1.1231    0.9843    1.5386 C   0  0  0  0  0  0  0  0  0  0  0  0
   -1.4401    2.1761    1.3640 C   0  0  0  0  0  0  0  0  0  0  0  0
   -1.9492    2.8798    2.2223 C   0  0  0  0  0  0  0  0  0  0  0  0
   -2.1125    2.3540    3.2556 C   0  0  0  0  0  0  0  0  0  0  0  0
   -1.7563    1.1532    3.4933 C   0  0  0  0  0  0  0  0  0  0  0  0
   -1.2559    0.5111    2.6386 C   0  0  0  0  0  0  0  0  0  0  0  0
  1  4  1  0
  1  5  1  0
  2  4  1  0
  2  6  1  0
  3  9  2  0
  4 24  1  0
  5  8  1  0
  5  9  1  0
  6  8  1  0
  6 18  1  0
  7  8  1  0
  7 10  1  0
  9 10  1  0
 10 11  1  0
 11 12  1  0
 12 13  2  0
 12 17  1  0
 13 14  1  0
 14 15  2  0
 15 16  1  0
 16 17  2  0
 18 19  2  0
 18 23  1  0
 19 20  1  0
 20 21  2  0
 21 22  1  0
 22 23  2  0
 24 25  2  0
 24 29  1  0
 25 26  1  0
 26 27  2  0
 27 28  1  0
 28 29  2  0
M  END
$$$$
