examples/luxsit/1_docked.pdbqt
 OpenBabel01122516383D

 29 33  0  0  1  0  0  0  0  0999 V2000
    1.1530   -2.0110   -3.0650 C   0  0  0  0  0  3  0  0  0  0  0  0
   -0.1540   -2.9630   -1.5790 N   0  0  0  0  0  4  0  0  0  0  0  0
    2.2730    0.5680   -3.4370 O   0  0  0  0  0  0  0  0  0  0  0  0
    0.5230   -3.0520   -2.6600 C   0  0  0  0  0  0  0  0  0  0  0  0
    1.1210   -0.8900   -2.3890 N   0  0  0  0  0  0  0  0  0  0  0  0
   -0.3010   -1.8830   -0.8270 C   0  0  0  0  0  0  0  0  0  0  0  0
    0.4680    0.3260   -0.6880 N   0  0  0  0  0  4  0  0  0  0  0  0
    0.3780   -0.8130   -1.2080 C   0  0  0  0  0  0  0  0  0  0  0  0
    1.6090    0.2850   -2.4730 C   0  0  0  0  0  0  0  0  0  0  0  0
    1.2250    1.0360   -1.4650 C   0  0  2  0  0  3  0  0  0  0  0  0
    0.5610   -4.2040   -3.4620 C   0  0  0  0  0  0  0  0  0  0  0  0
    1.4600   -5.0630   -3.3930 C   0  0  0  0  0  3  0  0  0  0  0  0
   -0.2780   -4.3180   -4.3200 C   0  0  0  0  0  3  0  0  0  0  0  0
    1.5060   -6.0600   -4.0970 C   0  0  0  0  0  3  0  0  0  0  0  0
   -0.2770   -5.2730   -5.0120 C   0  0  0  0  0  3  0  0  0  0  0  0
    0.6340   -6.1540   -4.8740 C   0  0  0  0  0  3  0  0  0  0  0  0
   -1.0470   -1.8820    0.3190 C   0  0  0  0  0  0  0  0  0  0  0  0
   -1.8820   -1.0010    0.6260 C   0  0  0  0  0  3  0  0  0  0  0  0
   -0.9210   -2.7860    1.1250 C   0  0  0  0  0  3  0  0  0  0  0  0
   -2.5210   -1.1370    1.6240 C   0  0  0  0  0  3  0  0  0  0  0  0
   -1.5500   -2.7950    2.2860 C   0  0  0  0  0  3  0  0  0  0  0  0
   -2.3320   -2.0330    2.5270 C   0  0  0  0  0  3  0  0  0  0  0  0
    1.5790    2.3700   -1.2500 C   0  0  0  0  0  2  0  0  0  0  0  0
    0.7310    3.1130   -0.4600 C   0  0  0  0  0  0  0  0  0  0  0  0
   -0.0830    3.8030   -0.9770 C   0  0  0  0  0  3  0  0  0  0  0  0
    0.7810    3.1440    0.8110 C   0  0  0  0  0  3  0  0  0  0  0  0
   -0.8830    4.5450   -0.2420 C   0  0  0  0  0  3  0  0  0  0  0  0
    0.0050    3.8700    1.4280 C   0  0  0  0  0  3  0  0  0  0  0  0
   -0.8520    4.6070    0.8660 C   0  0  0  0  0  3  0  0  0  0  0  0
  1  4  2  0  0  0  0
  1  5  1  0  0  0  0
  2  6  1  0  0  0  0
  3  9  2  0  0  0  0
  4  2  1  0  0  0  0
  5  8  1  0  0  0  0
  6 17  1  0  0  0  0
  8  6  2  0  0  0  0
  8  7  1  0  0  0  0
  9  5  1  0  0  0  0
  9 10  1  0  0  0  0
 10 23  1  1  0  0  0
 10  7  1  0  0  0  0
 11 12  1  0  0  0  0
 11  4  1  0  0  0  0
 13 11  2  0  0  0  0
 14 12  2  0  0  0  0
 15 16  2  0  0  0  0
 15 13  1  0  0  0  0
 16 14  1  0  0  0  0
 17 18  2  0  0  0  0
 17 19  1  0  0  0  0
 18 20  1  0  0  0  0
 19 21  2  0  0  0  0
 20 22  2  0  0  0  0
 21 22  1  0  0  0  0
 23 24  1  0  0  0  0
 24 26  1  0  0  0  0
 25 24  2  0  0  0  0
 25 27  1  0  0  0  0
 26 28  2  0  0  0  0
 27 29  2  0  0  0  0
 29 28  1  0  0  0  0
M  END
>  <MODEL>
1

>  <REMARK>
 VINA RESULT:   -11.442      0.000      0.000
 INTER + INTRA:         -13.497
 INTER:                 -12.873
 INTRA:                  -0.624
 UNBOUND:                 0.620
 Flexibility Score: inf
 Active torsions [ 4 ] -> [ 4 ]

>  <TORSDO>
F 4

$$$$
