MODEL 1
REMARK VINA RESULT:   -11.442      0.000      0.000
REMARK INTER + INTRA:         -13.497
REMARK INTER:                 -12.873
REMARK INTRA:                  -0.624
REMARK UNBOUND:                 0.620
REMARK Flexibility Score: inf
REMARK Active torsions [ 4 ] -> [ 4 ]
ROOT
ATOM      1  C1  LIG L   1       1.153  -2.011  -3.065  1.00  0.00     0.172 C 
ATOM      2  N1  LIG L   1      -0.154  -2.963  -1.579  1.00  0.00     0.244 N 
ATOM      3  O1  LIG L   1       2.273   0.568  -3.437  1.00  0.00    -0.269 OA
ATOM      4  C2  LIG L   1       0.523  -3.052  -2.660  1.00  0.00     0.112 C 
ATOM      5  N2  LIG L   1       1.121  -0.890  -2.389  1.00  0.00    -0.245 N 
ATOM      6  C3  LIG L   1      -0.301  -1.883  -0.827  1.00  0.00     0.164 C 
ATOM      7  N3  LIG L   1       0.468   0.326  -0.688  1.00  0.00     0.256 N 
ATOM      8  C4  LIG L   1       0.378  -0.813  -1.208  1.00  0.00     0.213 C 
ATOM      9  C5  LIG L   1       1.609   0.285  -2.473  1.00  0.00     0.268 C 
ATOM     10  C6  LIG L   1       1.225   1.036  -1.465  1.00  0.00     0.157 C 
ATOM     11  H1  LIG L   1       0.245  -3.667  -0.957  1.00  0.00     0.203 HD
ATOM     12  H2  LIG L   1      -1.096  -3.028  -1.964  1.00  0.00     0.203 HD
ATOM     13  H3  LIG L   1       0.887   0.255   0.240  1.00  0.00     0.204 HD
ATOM     14  H4  LIG L   1      -0.451   0.753  -0.581  1.00  0.00     0.204 HD
ENDROOT
BRANCH    4   15
ATOM     15  C7  LIG L   1       0.561  -4.204  -3.462  1.00  0.00     0.002 A 
ATOM     16  C8  LIG L   1       1.460  -5.063  -3.393  1.00  0.00     0.009 A 
ATOM     17  C9  LIG L   1      -0.278  -4.318  -4.320  1.00  0.00     0.009 A 
ATOM     18 C10  LIG L   1       1.506  -6.060  -4.097  1.00  0.00     0.000 A 
ATOM     19 C11  LIG L   1      -0.277  -5.273  -5.012  1.00  0.00     0.000 A 
ATOM     20 C12  LIG L   1       0.634  -6.154  -4.874  1.00  0.00     0.000 A 
ENDBRANCH    4   15
BRANCH    6   21
ATOM     21 C13  LIG L   1      -1.047  -1.882   0.319  1.00  0.00     0.007 A 
ATOM     22 C14  LIG L   1      -1.882  -1.001   0.626  1.00  0.00     0.009 A 
ATOM     23 C15  LIG L   1      -0.921  -2.786   1.125  1.00  0.00     0.009 A 
ATOM     24 C16  LIG L   1      -2.521  -1.137   1.624  1.00  0.00     0.000 A 
ATOM     25 C17  LIG L   1      -1.550  -2.795   2.286  1.00  0.00     0.000 A 
ATOM     26 C18  LIG L   1      -2.332  -2.033   2.527  1.00  0.00     0.000 A 
ENDBRANCH    6   21
BRANCH   10   27
ATOM     27 C19  LIG L   1       1.579   2.370  -1.250  1.00  0.00     0.099 C 
BRANCH   27   28
ATOM     28 C20  LIG L   1       0.731   3.113  -0.460  1.00  0.00    -0.042 A 
ATOM     29 C21  LIG L   1      -0.083   3.803  -0.977  1.00  0.00     0.004 A 
ATOM     30 C22  LIG L   1       0.781   3.144   0.811  1.00  0.00     0.004 A 
ATOM     31 C23  LIG L   1      -0.883   4.545  -0.242  1.00  0.00     0.000 A 
ATOM     32 C24  LIG L   1       0.005   3.870   1.428  1.00  0.00     0.000 A 
ATOM     33 C25  LIG L   1      -0.852   4.607   0.866  1.00  0.00     0.000 A 
ENDBRANCH   27   28
ENDBRANCH   10   27
TORSDOF 4
ENDMDL
