
     RDKit          3D

 29 33  0  0  0  0  0  0  0  0999 V2000
   -1.2011   -0.8068    0.1093 C   0  0  0  0  0  0  0  0  0  0  0  0
    0.6341    0.4187    0.0625 N   0  0  0  0  0  0  0  0  0  0  0  0
   -2.1501   -3.0483   -1.3556 O   0  0  0  0  0  0  0  0  0  0  0  0
   -0.5210    0.1859    0.5748 C   0  0  0  0  0  0  0  0  0  0  0  0
   -0.7139   -1.5629   -0.8624 N   0  0  0  0  0  0  0  0  0  0  0  0
    1.2169   -0.2436   -0.9327 C   0  0  0  0  0  0  0  0  0  0  0  0
    0.8569   -2.1160   -2.2815 N   0  0  0  0  0  0  0  0  0  0  0  0
    0.5542   -1.2849   -1.3934 C   0  0  0  0  0  0  0  0  0  0  0  0
   -1.0593   -2.5884   -1.5460 C   0  0  0  0  0  0  0  0  0  0  0  0
   -0.1326   -2.9337   -2.4163 C   0  0  0  0  0  0  0  0  0  0  0  0
   -0.2004   -4.0129   -3.2847 C   0  0  0  0  0  0  0  0  0  0  0  0
   -0.9805   -3.8283   -4.4146 C   0  0  0  0  0  0  0  0  0  0  0  0
   -0.4690   -3.9053   -5.4946 C   0  0  0  0  0  0  0  0  0  0  0  0
   -1.1518   -3.6987   -6.5846 C   0  0  0  0  0  0  0  0  0  0  0  0
   -2.2373   -3.4419   -6.5950 C   0  0  0  0  0  0  0  0  0  0  0  0
   -2.8221   -3.3738   -5.4617 C   0  0  0  0  0  0  0  0  0  0  0  0
   -2.2176   -3.5462   -4.4040 C   0  0  0  0  0  0  0  0  0  0  0  0
    2.4518    0.0883   -1.4146 C   0  0  0  0  0  0  0  0  0  0  0  0
    2.7479    0.2299   -2.6186 C   0  0  0  0  0  0  0  0  0  0  0  0
    3.8471    0.5791   -2.9185 C   0  0  0  0  0  0  0  0  0  0  0  0
    4.8403    0.6827   -2.1094 C   0  0  0  0  0  0  0  0  0  0  0  0
    4.6025    0.5033   -1.0266 C   0  0  0  0  0  0  0  0  0  0  0  0
    3.3694    0.2672   -0.6175 C   0  0  0  0  0  0  0  0  0  0  0  0
   -1.1070    0.9813    1.5396 C   0  0  0  0  0  0  0  0  0  0  0  0
   -1.4300    2.1713    1.3717 C   0  0  0  0  0  0  0  0  0  0  0  0
   -1.9448    2.8814    2.2294 C   0  0  0  0  0  0  0  0  0  0  0  0
   -2.1053    2.3532    3.2564 C   0  0  0  0  0  0  0  0  0  0  0  0
   -1.7579    1.1401    3.4874 C   0  0  0  0  0  0  0  0  0  0  0  0
   -1.2501    0.4995    2.6386 C   0  0  0  0  0  0  0  0  0  0  0  0
  1  4  1  0
  1  5  1  0
  2  4  1  0
  2  6  1  0
  3  9  2  0
  4 24  1  0
  5  8  1  0
  5  9  1  0
  6  8  1  0
  6 18  1  0
  7  8  1  0
  7 10  1  0
  9 10  1  0
 10 11  1  0
 11 12  1  0
 12 13  2  0
 12 17  1  0
 13 14  1  0
 14 15  2  0
 15 16  1  0
 16 17  2  0
 18 19  2  0
 18 23  1  0
 19 20  1  0
 20 21  2  0
 21 22  1  0
 22 23  2  0
 24 25  2  0
 24 29  1  0
 25 26  1  0
 26 27  2  0
 27 28  1  0
 28 29  2  0
M  END
$$$$
