MODEL 1
REMARK VINA RESULT:   -11.768      0.000      0.000
REMARK INTER + INTRA:         -14.428
REMARK INTER:                 -13.424
REMARK INTRA:                  -1.004
REMARK UNBOUND:                 0.091
REMARK Flexibility Score: inf
REMARK Active torsions [ 4 ] -> [ 4 ]
ROOT
ATOM      1  C1  LIG L   1      -0.831   1.475  -0.091  1.00  0.00     0.172 C 
ATOM      2  N1  LIG L   1       1.200   2.195   0.389  1.00  0.00     0.244 N 
ATOM      3  O1  LIG L   1      -1.941  -1.025  -0.857  1.00  0.00    -0.269 OA
ATOM      4  C2  LIG L   1      -0.052   2.447   0.248  1.00  0.00     0.112 C 
ATOM      5  N2  LIG L   1      -0.349   0.257  -0.279  1.00  0.00    -0.245 N 
ATOM      6  C3  LIG L   1       1.808   1.027   0.199  1.00  0.00     0.164 C 
ATOM      7  N3  LIG L   1       1.290  -1.194  -0.304  1.00  0.00     0.256 N 
ATOM      8  C4  LIG L   1       1.022   0.015  -0.109  1.00  0.00     0.213 C 
ATOM      9  C5  LIG L   1      -0.777  -0.907  -0.592  1.00  0.00     0.268 C 
ATOM     10  C6  LIG L   1       0.193  -1.797  -0.624  1.00  0.00     0.157 C 
ATOM     11  H1  LIG L   1       1.412   2.447   1.354  1.00  0.00     0.203 HD
ATOM     12  H2  LIG L   1       1.561   2.701  -0.420  1.00  0.00     0.203 HD
ATOM     13  H3  LIG L   1       1.674  -1.605   0.547  1.00  0.00     0.204 HD
ATOM     14  H4  LIG L   1       1.977  -1.288  -1.050  1.00  0.00     0.204 HD
ENDROOT
BRANCH    4   15
ATOM     15  C7  LIG L   1      -0.598   3.710   0.363  1.00  0.00     0.002 A 
ATOM     16  C8  LIG L   1       0.000   4.765   0.084  1.00  0.00     0.009 A 
ATOM     17  C9  LIG L   1      -1.709   3.790   0.831  1.00  0.00     0.009 A 
ATOM     18 C10  LIG L   1      -0.480   5.888   0.192  1.00  0.00     0.000 A 
ATOM     19 C11  LIG L   1      -2.217   4.847   0.934  1.00  0.00     0.000 A 
ATOM     20 C12  LIG L   1      -1.572   5.905   0.602  1.00  0.00     0.000 A 
ENDBRANCH    4   15
BRANCH    6   21
ATOM     21 C13  LIG L   1       3.154   0.861   0.368  1.00  0.00     0.007 A 
ATOM     22 C14  LIG L   1       3.970   0.574  -0.532  1.00  0.00     0.009 A 
ATOM     23 C15  LIG L   1       3.630   1.000   1.492  1.00  0.00     0.009 A 
ATOM     24 C16  LIG L   1       5.132   0.512  -0.275  1.00  0.00     0.000 A 
ATOM     25 C17  LIG L   1       4.907   0.767   1.734  1.00  0.00     0.000 A 
ATOM     26 C18  LIG L   1       5.637   0.564   0.905  1.00  0.00     0.000 A 
ENDBRANCH    6   21
BRANCH   10   27
ATOM     27 C19  LIG L   1       0.047  -3.147  -0.908  1.00  0.00     0.099 C 
BRANCH   27   28
ATOM     28 C20  LIG L   1       0.279  -3.514  -2.224  1.00  0.00    -0.042 A 
ATOM     29 C21  LIG L   1      -0.638  -3.536  -2.993  1.00  0.00     0.004 A 
ATOM     30 C22  LIG L   1       1.405  -3.868  -2.690  1.00  0.00     0.004 A 
ATOM     31 C23  LIG L   1      -0.478  -3.912  -4.230  1.00  0.00     0.000 A 
ATOM     32 C24  LIG L   1       1.508  -4.202  -3.870  1.00  0.00     0.000 A 
ATOM     33 C25  LIG L   1       0.501  -4.235  -4.655  1.00  0.00     0.000 A 
ENDBRANCH   27   28
ENDBRANCH   10   27
TORSDOF 4
ENDMDL
