examples/luxsit/2_docked.pdbqt
 OpenBabel01122516383D

 29 33  0  0  1  0  0  0  0  0999 V2000
   -0.8310    1.4750   -0.0910 C   0  0  0  0  0  3  0  0  0  0  0  0
    1.2000    2.1950    0.3890 N   0  0  0  0  0  4  0  0  0  0  0  0
   -1.9410   -1.0250   -0.8570 O   0  0  0  0  0  0  0  0  0  0  0  0
   -0.0520    2.4470    0.2480 C   0  0  0  0  0  0  0  0  0  0  0  0
   -0.3490    0.2570   -0.2790 N   0  0  0  0  0  0  0  0  0  0  0  0
    1.8080    1.0270    0.1990 C   0  0  0  0  0  0  0  0  0  0  0  0
    1.2900   -1.1940   -0.3040 N   0  0  0  0  0  4  0  0  0  0  0  0
    1.0220    0.0150   -0.1090 C   0  0  0  0  0  0  0  0  0  0  0  0
   -0.7770   -0.9070   -0.5920 C   0  0  0  0  0  0  0  0  0  0  0  0
    0.1930   -1.7970   -0.6240 C   0  0  2  0  0  3  0  0  0  0  0  0
   -0.5980    3.7100    0.3630 C   0  0  0  0  0  0  0  0  0  0  0  0
    0.0000    4.7650    0.0840 C   0  0  0  0  0  3  0  0  0  0  0  0
   -1.7090    3.7900    0.8310 C   0  0  0  0  0  3  0  0  0  0  0  0
   -0.4800    5.8880    0.1920 C   0  0  0  0  0  3  0  0  0  0  0  0
   -2.2170    4.8470    0.9340 C   0  0  0  0  0  3  0  0  0  0  0  0
   -1.5720    5.9050    0.6020 C   0  0  0  0  0  3  0  0  0  0  0  0
    3.1540    0.8610    0.3680 C   0  0  0  0  0  0  0  0  0  0  0  0
    3.9700    0.5740   -0.5320 C   0  0  0  0  0  3  0  0  0  0  0  0
    3.6300    1.0000    1.4920 C   0  0  0  0  0  3  0  0  0  0  0  0
    5.1320    0.5120   -0.2750 C   0  0  0  0  0  3  0  0  0  0  0  0
    4.9070    0.7670    1.7340 C   0  0  0  0  0  3  0  0  0  0  0  0
    5.6370    0.5640    0.9050 C   0  0  0  0  0  3  0  0  0  0  0  0
    0.0470   -3.1470   -0.9080 C   0  0  0  0  0  2  0  0  0  0  0  0
    0.2790   -3.5140   -2.2240 C   0  0  0  0  0  0  0  0  0  0  0  0
   -0.6380   -3.5360   -2.9930 C   0  0  0  0  0  3  0  0  0  0  0  0
    1.4050   -3.8680   -2.6900 C   0  0  0  0  0  3  0  0  0  0  0  0
   -0.4780   -3.9120   -4.2300 C   0  0  0  0  0  3  0  0  0  0  0  0
    1.5080   -4.2020   -3.8700 C   0  0  0  0  0  3  0  0  0  0  0  0
    0.5010   -4.2350   -4.6550 C   0  0  0  0  0  3  0  0  0  0  0  0
  1  4  2  0  0  0  0
  3  9  2  0  0  0  0
  4 11  1  0  0  0  0
  4  2  1  0  0  0  0
  5  8  1  0  0  0  0
  5  1  1  0  0  0  0
  6 17  1  0  0  0  0
  6  2  1  0  0  0  0
  7  8  1  0  0  0  0
  8  6  2  0  0  0  0
  9  5  1  0  0  0  0
 10 23  1  1  0  0  0
 10  9  1  0  0  0  0
 10  7  1  0  0  0  0
 11 13  1  0  0  0  0
 12 14  1  0  0  0  0
 12 11  2  0  0  0  0
 13 15  2  0  0  0  0
 14 16  2  0  0  0  0
 16 15  1  0  0  0  0
 17 19  1  0  0  0  0
 18 20  1  0  0  0  0
 18 17  2  0  0  0  0
 19 21  2  0  0  0  0
 20 22  2  0  0  0  0
 22 21  1  0  0  0  0
 24 23  1  0  0  0  0
 25 24  2  0  0  0  0
 26 24  1  0  0  0  0
 27 25  1  0  0  0  0
 28 26  2  0  0  0  0
 29 27  2  0  0  0  0
 29 28  1  0  0  0  0
M  END
>  <MODEL>
1

>  <REMARK>
 VINA RESULT:   -11.768      0.000      0.000
 INTER + INTRA:         -14.428
 INTER:                 -13.424
 INTRA:                  -1.004
 UNBOUND:                 0.091
 Flexibility Score: inf
 Active torsions [ 4 ] -> [ 4 ]

>  <TORSDO>
F 4

$$$$
