
     RDKit          3D

 29 33  0  0  0  0  0  0  0  0999 V2000
   -1.1953   -0.8044    0.0911 C   0  0  0  0  0  0  0  0  0  0  0  0
    0.6380    0.4202    0.0415 N   0  0  0  0  0  0  0  0  0  0  0  0
   -2.1601   -3.0468   -1.3541 O   0  0  0  0  0  0  0  0  0  0  0  0
   -0.5099    0.1943    0.5549 C   0  0  0  0  0  0  0  0  0  0  0  0
   -0.7066   -1.5613   -0.8662 N   0  0  0  0  0  0  0  0  0  0  0  0
    1.2108   -0.2375   -0.9465 C   0  0  0  0  0  0  0  0  0  0  0  0
    0.8550   -2.1077   -2.2926 N   0  0  0  0  0  0  0  0  0  0  0  0
    0.5461   -1.2853   -1.4075 C   0  0  0  0  0  0  0  0  0  0  0  0
   -1.0781   -2.5779   -1.5301 C   0  0  0  0  0  0  0  0  0  0  0  0
   -0.1347   -2.9266   -2.4053 C   0  0  0  0  0  0  0  0  0  0  0  0
   -0.2044   -4.0021   -3.3029 C   0  0  0  0  0  0  0  0  0  0  0  0
   -0.9802   -3.8281   -4.4154 C   0  0  0  0  0  0  0  0  0  0  0  0
   -0.4602   -3.8996   -5.4847 C   0  0  0  0  0  0  0  0  0  0  0  0
   -1.1751   -3.6954   -6.5770 C   0  0  0  0  0  0  0  0  0  0  0  0
   -2.2685   -3.4310   -6.5928 C   0  0  0  0  0  0  0  0  0  0  0  0
   -2.8208   -3.3641   -5.4713 C   0  0  0  0  0  0  0  0  0  0  0  0
   -2.2280   -3.5419   -4.4088 C   0  0  0  0  0  0  0  0  0  0  0  0
    2.4460    0.0812   -1.4257 C   0  0  0  0  0  0  0  0  0  0  0  0
    2.7239    0.2456   -2.6063 C   0  0  0  0  0  0  0  0  0  0  0  0
    3.8359    0.5926   -2.9128 C   0  0  0  0  0  0  0  0  0  0  0  0
    4.8355    0.6758   -2.1093 C   0  0  0  0  0  0  0  0  0  0  0  0
    4.5967    0.4805   -1.0560 C   0  0  0  0  0  0  0  0  0  0  0  0
    3.3647    0.2517   -0.6480 C   0  0  0  0  0  0  0  0  0  0  0  0
   -1.1108    0.9890    1.5366 C   0  0  0  0  0  0  0  0  0  0  0  0
   -1.4328    2.1747    1.3706 C   0  0  0  0  0  0  0  0  0  0  0  0
   -1.9446    2.8817    2.2319 C   0  0  0  0  0  0  0  0  0  0  0  0
   -2.1099    2.3618    3.2557 C   0  0  0  0  0  0  0  0  0  0  0  0
   -1.7605    1.1487    3.4867 C   0  0  0  0  0  0  0  0  0  0  0  0
   -1.2554    0.5040    2.6365 C   0  0  0  0  0  0  0  0  0  0  0  0
  1  4  1  0
  1  5  1  0
  2  4  1  0
  2  6  1  0
  3  9  2  0
  4 24  1  0
  5  8  1  0
  5  9  1  0
  6  8  1  0
  6 18  1  0
  7  8  1  0
  7 10  1  0
  9 10  1  0
 10 11  1  0
 11 12  1  0
 12 13  2  0
 12 17  1  0
 13 14  1  0
 14 15  2  0
 15 16  1  0
 16 17  2  0
 18 19  2  0
 18 23  1  0
 19 20  1  0
 20 21  2  0
 21 22  1  0
 22 23  2  0
 24 25  2  0
 24 29  1  0
 25 26  1  0
 26 27  2  0
 27 28  1  0
 28 29  2  0
M  END
$$$$
