examples/luxsit/3_docked.pdbqt
 OpenBabel01122516383D

 29 33  0  0  1  0  0  0  0  0999 V2000
    1.6480    2.0150   -1.1120 C   0  0  0  0  0  3  0  0  0  0  0  0
    0.2590    1.4400    0.5010 N   0  0  0  0  0  4  0  0  0  0  0  0
    2.5100    0.8350   -3.5440 O   0  0  0  0  0  0  0  0  0  0  0  0
    1.0900    2.2870    0.0260 C   0  0  0  0  0  0  0  0  0  0  0  0
    1.3490    0.9080   -1.7540 N   0  0  0  0  0  0  0  0  0  0  0  0
   -0.0850    0.2820   -0.0250 C   0  0  0  0  0  0  0  0  0  0  0  0
    0.2700   -0.9820   -1.9520 N   0  0  0  0  0  4  0  0  0  0  0  0
    0.4430    0.0030   -1.2060 C   0  0  0  0  0  0  0  0  0  0  0  0
    1.6820    0.3430   -2.8410 C   0  0  0  0  0  0  0  0  0  0  0  0
    1.0300   -0.8120   -2.9800 C   0  0  1  0  0  3  0  0  0  0  0  0
    1.4920    3.4570    0.6790 C   0  0  0  0  0  0  0  0  0  0  0  0
    1.0370    4.5840    0.4320 C   0  0  0  0  0  3  0  0  0  0  0  0
    2.3920    3.3660    1.4820 C   0  0  0  0  0  3  0  0  0  0  0  0
    1.3970    5.6150    0.9890 C   0  0  0  0  0  3  0  0  0  0  0  0
    2.7550    4.3350    2.0520 C   0  0  0  0  0  3  0  0  0  0  0  0
    2.2270    5.4750    1.7870 C   0  0  0  0  0  3  0  0  0  0  0  0
   -0.9860   -0.5560    0.5610 C   0  0  0  0  0  0  0  0  0  0  0  0
   -2.0010   -0.2020    1.1460 C   0  0  0  0  0  3  0  0  0  0  0  0
   -0.8200   -1.7580    0.4920 C   0  0  0  0  0  3  0  0  0  0  0  0
   -2.7650   -1.0320    1.5680 C   0  0  0  0  0  3  0  0  0  0  0  0
   -1.6120   -2.6130    1.1070 C   0  0  0  0  0  3  0  0  0  0  0  0
   -2.5460   -2.2980    1.5890 C   0  0  0  0  0  3  0  0  0  0  0  0
    1.1510   -1.7000   -4.0590 C   0  0  0  0  0  2  0  0  0  0  0  0
    0.0760   -1.8020   -4.8970 C   0  0  0  0  0  0  0  0  0  0  0  0
   -0.3140   -2.8900   -5.1870 C   0  0  0  0  0  3  0  0  0  0  0  0
   -0.5300   -0.8170   -5.4460 C   0  0  0  0  0  3  0  0  0  0  0  0
   -1.3240   -3.0220   -6.0280 C   0  0  0  0  0  3  0  0  0  0  0  0
   -1.4620   -1.0260   -6.2200 C   0  0  0  0  0  3  0  0  0  0  0  0
   -1.8620   -2.1710   -6.5300 C   0  0  0  0  0  3  0  0  0  0  0  0
  1  4  2  0  0  0  0
  3  9  2  0  0  0  0
  4  2  1  0  0  0  0
  4 11  1  0  0  0  0
  5  8  1  0  0  0  0
  5  1  1  0  0  0  0
  6  2  1  0  0  0  0
  6 17  1  0  0  0  0
  7  8  1  0  0  0  0
  8  6  2  0  0  0  0
  9  5  1  0  0  0  0
 10 23  1  1  0  0  0
 10  9  1  0  0  0  0
 10  7  1  0  0  0  0
 11 13  1  0  0  0  0
 12 11  2  0  0  0  0
 12 14  1  0  0  0  0
 13 15  2  0  0  0  0
 14 16  2  0  0  0  0
 16 15  1  0  0  0  0
 17 18  1  0  0  0  0
 18 20  2  0  0  0  0
 19 17  2  0  0  0  0
 19 21  1  0  0  0  0
 20 22  1  0  0  0  0
 21 22  2  0  0  0  0
 24 23  1  0  0  0  0
 25 24  1  0  0  0  0
 26 24  2  0  0  0  0
 27 25  2  0  0  0  0
 28 26  1  0  0  0  0
 29 28  2  0  0  0  0
 29 27  1  0  0  0  0
M  END
>  <MODEL>
1

>  <REMARK>
 VINA RESULT:    -9.524      0.000      0.000
 INTER + INTRA:         -12.744
 INTER:                 -12.166
 INTRA:                  -0.577
 UNBOUND:                -0.992
 Flexibility Score: inf
 Active torsions [ 4 ] -> [ 4 ]

>  <TORSDO>
F 4

$$$$
