MODEL 1
REMARK VINA RESULT:    -9.524      0.000      0.000
REMARK INTER + INTRA:         -12.744
REMARK INTER:                 -12.166
REMARK INTRA:                  -0.577
REMARK UNBOUND:                -0.992
REMARK Flexibility Score: inf
REMARK Active torsions [ 4 ] -> [ 4 ]
ROOT
ATOM      1  C1  LIG L   1       1.648   2.015  -1.112  1.00  0.00     0.172 C 
ATOM      2  N1  LIG L   1       0.259   1.440   0.501  1.00  0.00     0.244 N 
ATOM      3  O1  LIG L   1       2.510   0.835  -3.544  1.00  0.00    -0.269 OA
ATOM      4  C2  LIG L   1       1.090   2.287   0.026  1.00  0.00     0.112 C 
ATOM      5  N2  LIG L   1       1.349   0.908  -1.754  1.00  0.00    -0.245 N 
ATOM      6  C3  LIG L   1      -0.085   0.282  -0.025  1.00  0.00     0.164 C 
ATOM      7  N3  LIG L   1       0.270  -0.982  -1.952  1.00  0.00     0.256 N 
ATOM      8  C4  LIG L   1       0.443   0.003  -1.206  1.00  0.00     0.213 C 
ATOM      9  C5  LIG L   1       1.682   0.343  -2.841  1.00  0.00     0.268 C 
ATOM     10  C6  LIG L   1       1.030  -0.812  -2.980  1.00  0.00     0.157 C 
ATOM     11  H1  LIG L   1      -0.616   1.956   0.595  1.00  0.00     0.203 HD
ATOM     12  H2  LIG L   1       0.806   1.103   1.293  1.00  0.00     0.203 HD
ATOM     13  H3  LIG L   1      -0.707  -1.034  -2.244  1.00  0.00     0.204 HD
ATOM     14  H4  LIG L   1       0.497  -1.850  -1.469  1.00  0.00     0.204 HD
ENDROOT
BRANCH    4   15
ATOM     15  C7  LIG L   1       1.492   3.457   0.679  1.00  0.00     0.002 A 
ATOM     16  C8  LIG L   1       1.037   4.584   0.432  1.00  0.00     0.009 A 
ATOM     17  C9  LIG L   1       2.392   3.366   1.482  1.00  0.00     0.009 A 
ATOM     18 C10  LIG L   1       1.397   5.615   0.989  1.00  0.00     0.000 A 
ATOM     19 C11  LIG L   1       2.755   4.335   2.052  1.00  0.00     0.000 A 
ATOM     20 C12  LIG L   1       2.227   5.475   1.787  1.00  0.00     0.000 A 
ENDBRANCH    4   15
BRANCH    6   21
ATOM     21 C13  LIG L   1      -0.986  -0.556   0.561  1.00  0.00     0.007 A 
ATOM     22 C14  LIG L   1      -2.001  -0.202   1.146  1.00  0.00     0.009 A 
ATOM     23 C15  LIG L   1      -0.820  -1.758   0.492  1.00  0.00     0.009 A 
ATOM     24 C16  LIG L   1      -2.765  -1.032   1.568  1.00  0.00     0.000 A 
ATOM     25 C17  LIG L   1      -1.612  -2.613   1.107  1.00  0.00     0.000 A 
ATOM     26 C18  LIG L   1      -2.546  -2.298   1.589  1.00  0.00     0.000 A 
ENDBRANCH    6   21
BRANCH   10   27
ATOM     27 C19  LIG L   1       1.151  -1.700  -4.059  1.00  0.00     0.099 C 
BRANCH   27   28
ATOM     28 C20  LIG L   1       0.076  -1.802  -4.897  1.00  0.00    -0.042 A 
ATOM     29 C21  LIG L   1      -0.314  -2.890  -5.187  1.00  0.00     0.004 A 
ATOM     30 C22  LIG L   1      -0.530  -0.817  -5.446  1.00  0.00     0.004 A 
ATOM     31 C23  LIG L   1      -1.324  -3.022  -6.028  1.00  0.00     0.000 A 
ATOM     32 C24  LIG L   1      -1.462  -1.026  -6.220  1.00  0.00     0.000 A 
ATOM     33 C25  LIG L   1      -1.862  -2.171  -6.530  1.00  0.00     0.000 A 
ENDBRANCH   27   28
ENDBRANCH   10   27
TORSDOF 4
ENDMDL
