
     RDKit          3D

 29 33  0  0  0  0  0  0  0  0999 V2000
   -1.2062   -0.7965    0.0957 C   0  0  0  0  0  0  0  0  0  0  0  0
    0.6224    0.4194    0.0572 N   0  0  0  0  0  0  0  0  0  0  0  0
   -2.1677   -3.0498   -1.3590 O   0  0  0  0  0  0  0  0  0  0  0  0
   -0.5470    0.1903    0.5747 C   0  0  0  0  0  0  0  0  0  0  0  0
   -0.7149   -1.5634   -0.8754 N   0  0  0  0  0  0  0  0  0  0  0  0
    1.2062   -0.2393   -0.9378 C   0  0  0  0  0  0  0  0  0  0  0  0
    0.8453   -2.1130   -2.2927 N   0  0  0  0  0  0  0  0  0  0  0  0
    0.5397   -1.2817   -1.3990 C   0  0  0  0  0  0  0  0  0  0  0  0
   -1.0755   -2.5804   -1.5560 C   0  0  0  0  0  0  0  0  0  0  0  0
   -0.1424   -2.9283   -2.4117 C   0  0  0  0  0  0  0  0  0  0  0  0
   -0.2164   -4.0071   -3.2921 C   0  0  0  0  0  0  0  0  0  0  0  0
   -0.9946   -3.8263   -4.4208 C   0  0  0  0  0  0  0  0  0  0  0  0
   -0.4702   -3.9067   -5.5086 C   0  0  0  0  0  0  0  0  0  0  0  0
   -1.1806   -3.7104   -6.5892 C   0  0  0  0  0  0  0  0  0  0  0  0
   -2.2613   -3.4410   -6.6003 C   0  0  0  0  0  0  0  0  0  0  0  0
   -2.8228   -3.3613   -5.4720 C   0  0  0  0  0  0  0  0  0  0  0  0
   -2.2424   -3.5391   -4.3972 C   0  0  0  0  0  0  0  0  0  0  0  0
    2.4382    0.0956   -1.4219 C   0  0  0  0  0  0  0  0  0  0  0  0
    2.7409    0.2352   -2.6290 C   0  0  0  0  0  0  0  0  0  0  0  0
    3.8529    0.5803   -2.9490 C   0  0  0  0  0  0  0  0  0  0  0  0
    4.8430    0.6793   -2.1320 C   0  0  0  0  0  0  0  0  0  0  0  0
    4.6078    0.4999   -1.0426 C   0  0  0  0  0  0  0  0  0  0  0  0
    3.3604    0.2649   -0.6188 C   0  0  0  0  0  0  0  0  0  0  0  0
   -1.1349    0.9833    1.5511 C   0  0  0  0  0  0  0  0  0  0  0  0
   -1.4478    2.1736    1.3784 C   0  0  0  0  0  0  0  0  0  0  0  0
   -1.9598    2.8828    2.2303 C   0  0  0  0  0  0  0  0  0  0  0  0
   -2.1105    2.3537    3.2635 C   0  0  0  0  0  0  0  0  0  0  0  0
   -1.7621    1.1535    3.4967 C   0  0  0  0  0  0  0  0  0  0  0  0
   -1.2800    0.5102    2.6500 C   0  0  0  0  0  0  0  0  0  0  0  0
  1  4  1  0
  1  5  1  0
  2  4  1  0
  2  6  1  0
  3  9  2  0
  4 24  1  0
  5  8  1  0
  5  9  1  0
  6  8  1  0
  6 18  1  0
  7  8  1  0
  7 10  1  0
  9 10  1  0
 10 11  1  0
 11 12  1  0
 12 13  2  0
 12 17  1  0
 13 14  1  0
 14 15  2  0
 15 16  1  0
 16 17  2  0
 18 19  2  0
 18 23  1  0
 19 20  1  0
 20 21  2  0
 21 22  1  0
 22 23  2  0
 24 25  2  0
 24 29  1  0
 25 26  1  0
 26 27  2  0
 27 28  1  0
 28 29  2  0
M  END
$$$$
