MODEL 1
REMARK VINA RESULT:   -15.970      0.000      0.000
REMARK INTER + INTRA:         -20.407
REMARK INTER:                 -19.603
REMARK INTRA:                  -0.804
REMARK UNBOUND:                -0.702
REMARK Flexibility Score: inf
REMARK Active torsions [ 4 ] -> [ 4 ]
ROOT
ATOM      1  C1  LIG L   1       2.496  -1.605  -3.160  1.00  0.00     0.172 C 
ATOM      2  N1  LIG L   1       1.735  -1.206  -1.139  1.00  0.00     0.244 N 
ATOM      3  O1  LIG L   1       1.764  -3.352  -5.289  1.00  0.00    -0.269 OA
ATOM      4  C2  LIG L   1       2.606  -0.947  -2.068  1.00  0.00     0.112 C 
ATOM      5  N2  LIG L   1       1.530  -2.501  -3.345  1.00  0.00    -0.245 N 
ATOM      6  C3  LIG L   1       0.754  -2.101  -1.180  1.00  0.00     0.164 C 
ATOM      7  N3  LIG L   1      -0.226  -3.607  -2.680  1.00  0.00     0.256 N 
ATOM      8  C4  LIG L   1       0.620  -2.746  -2.325  1.00  0.00     0.213 C 
ATOM      9  C5  LIG L   1       1.137  -3.299  -4.261  1.00  0.00     0.268 C 
ATOM     10  C6  LIG L   1       0.075  -3.969  -3.876  1.00  0.00     0.157 C 
ATOM     11  H1  LIG L   1       1.270  -0.316  -0.962  1.00  0.00     0.203 HD
ATOM     12  H2  LIG L   1       2.348  -1.671  -0.469  1.00  0.00     0.203 HD
ATOM     13  H3  LIG L   1      -1.163  -3.204  -2.662  1.00  0.00     0.204 HD
ATOM     14  H4  LIG L   1      -0.213  -4.407  -2.047  1.00  0.00     0.204 HD
ENDROOT
BRANCH    4   15
ATOM     15  C7  LIG L   1       3.667  -0.065  -1.916  1.00  0.00     0.002 A 
ATOM     16  C8  LIG L   1       3.540   1.172  -1.904  1.00  0.00     0.009 A 
ATOM     17  C9  LIG L   1       4.780  -0.524  -1.870  1.00  0.00     0.009 A 
ATOM     18 C10  LIG L   1       4.465   1.959  -1.777  1.00  0.00     0.000 A 
ATOM     19 C11  LIG L   1       5.696   0.192  -1.754  1.00  0.00     0.000 A 
ATOM     20 C12  LIG L   1       5.516   1.450  -1.698  1.00  0.00     0.000 A 
ENDBRANCH    4   15
BRANCH    6   21
ATOM     21 C13  LIG L   1      -0.101  -2.308  -0.136  1.00  0.00     0.007 A 
ATOM     22 C14  LIG L   1      -1.351  -2.294  -0.196  1.00  0.00     0.009 A 
ATOM     23 C15  LIG L   1       0.377  -2.511   0.984  1.00  0.00     0.009 A 
ATOM     24 C16  LIG L   1      -2.017  -2.536   0.782  1.00  0.00     0.000 A 
ATOM     25 C17  LIG L   1      -0.413  -2.624   2.059  1.00  0.00     0.000 A 
ATOM     26 C18  LIG L   1      -1.538  -2.667   1.970  1.00  0.00     0.000 A 
ENDBRANCH    6   21
BRANCH   10   27
ATOM     27 C19  LIG L   1      -0.610  -4.907  -4.648  1.00  0.00     0.099 C 
BRANCH   27   28
ATOM     28 C20  LIG L   1      -1.678  -4.432  -5.388  1.00  0.00    -0.042 A 
ATOM     29 C21  LIG L   1      -1.532  -4.262  -6.578  1.00  0.00     0.004 A 
ATOM     30 C22  LIG L   1      -2.815  -4.119  -4.891  1.00  0.00     0.004 A 
ATOM     31 C23  LIG L   1      -2.519  -3.786  -7.291  1.00  0.00     0.000 A 
ATOM     32 C24  LIG L   1      -3.680  -3.667  -5.647  1.00  0.00     0.000 A 
ATOM     33 C25  LIG L   1      -3.512  -3.488  -6.886  1.00  0.00     0.000 A 
ENDBRANCH   27   28
ENDBRANCH   10   27
TORSDOF 4
ENDMDL
