examples/luxsit/4_docked.pdbqt
 OpenBabel01122516383D

 29 33  0  0  1  0  0  0  0  0999 V2000
    2.4960   -1.6050   -3.1600 C   0  0  0  0  0  3  0  0  0  0  0  0
    1.7350   -1.2060   -1.1390 N   0  0  0  0  0  4  0  0  0  0  0  0
    1.7640   -3.3520   -5.2890 O   0  0  0  0  0  0  0  0  0  0  0  0
    2.6060   -0.9470   -2.0680 C   0  0  0  0  0  0  0  0  0  0  0  0
    1.5300   -2.5010   -3.3450 N   0  0  0  0  0  0  0  0  0  0  0  0
    0.7540   -2.1010   -1.1800 C   0  0  0  0  0  0  0  0  0  0  0  0
   -0.2260   -3.6070   -2.6800 N   0  0  0  0  0  4  0  0  0  0  0  0
    0.6200   -2.7460   -2.3250 C   0  0  0  0  0  0  0  0  0  0  0  0
    1.1370   -3.2990   -4.2610 C   0  0  0  0  0  0  0  0  0  0  0  0
    0.0750   -3.9690   -3.8760 C   0  0  2  0  0  3  0  0  0  0  0  0
    3.6670   -0.0650   -1.9160 C   0  0  0  0  0  0  0  0  0  0  0  0
    3.5400    1.1720   -1.9040 C   0  0  0  0  0  3  0  0  0  0  0  0
    4.7800   -0.5240   -1.8700 C   0  0  0  0  0  3  0  0  0  0  0  0
    4.4650    1.9590   -1.7770 C   0  0  0  0  0  3  0  0  0  0  0  0
    5.6960    0.1920   -1.7540 C   0  0  0  0  0  3  0  0  0  0  0  0
    5.5160    1.4500   -1.6980 C   0  0  0  0  0  3  0  0  0  0  0  0
   -0.1010   -2.3080   -0.1360 C   0  0  0  0  0  0  0  0  0  0  0  0
   -1.3510   -2.2940   -0.1960 C   0  0  0  0  0  3  0  0  0  0  0  0
    0.3770   -2.5110    0.9840 C   0  0  0  0  0  3  0  0  0  0  0  0
   -2.0170   -2.5360    0.7820 C   0  0  0  0  0  3  0  0  0  0  0  0
   -0.4130   -2.6240    2.0590 C   0  0  0  0  0  3  0  0  0  0  0  0
   -1.5380   -2.6670    1.9700 C   0  0  0  0  0  3  0  0  0  0  0  0
   -0.6100   -4.9070   -4.6480 C   0  0  0  0  0  2  0  0  0  0  0  0
   -1.6780   -4.4320   -5.3880 C   0  0  0  0  0  0  0  0  0  0  0  0
   -1.5320   -4.2620   -6.5780 C   0  0  0  0  0  3  0  0  0  0  0  0
   -2.8150   -4.1190   -4.8910 C   0  0  0  0  0  3  0  0  0  0  0  0
   -2.5190   -3.7860   -7.2910 C   0  0  0  0  0  3  0  0  0  0  0  0
   -3.6800   -3.6670   -5.6470 C   0  0  0  0  0  3  0  0  0  0  0  0
   -3.5120   -3.4880   -6.8860 C   0  0  0  0  0  3  0  0  0  0  0  0
  1  4  2  0  0  0  0
  3  9  2  0  0  0  0
  4 11  1  0  0  0  0
  4  2  1  0  0  0  0
  5  1  1  0  0  0  0
  5  8  1  0  0  0  0
  6  2  1  0  0  0  0
  6 17  1  0  0  0  0
  7  8  1  0  0  0  0
  8  6  2  0  0  0  0
  9 10  1  0  0  0  0
  9  5  1  0  0  0  0
 10 23  1  6  0  0  0
 10  7  1  0  0  0  0
 11 12  2  0  0  0  0
 11 13  1  0  0  0  0
 12 14  1  0  0  0  0
 13 15  2  0  0  0  0
 14 16  2  0  0  0  0
 15 16  1  0  0  0  0
 17 19  1  0  0  0  0
 18 17  2  0  0  0  0
 18 20  1  0  0  0  0
 19 21  2  0  0  0  0
 20 22  2  0  0  0  0
 22 21  1  0  0  0  0
 24 26  1  0  0  0  0
 24 23  1  0  0  0  0
 25 24  2  0  0  0  0
 27 29  2  0  0  0  0
 27 25  1  0  0  0  0
 28 26  2  0  0  0  0
 29 28  1  0  0  0  0
M  END
>  <MODEL>
1

>  <REMARK>
 VINA RESULT:   -15.970      0.000      0.000
 INTER + INTRA:         -20.407
 INTER:                 -19.603
 INTRA:                  -0.804
 UNBOUND:                -0.702
 Flexibility Score: inf
 Active torsions [ 4 ] -> [ 4 ]

>  <TORSDO>
F 4

$$$$
