
     RDKit          3D

 29 33  0  0  0  0  0  0  0  0999 V2000
   -1.1758   -0.8044    0.0730 C   0  0  0  0  0  0  0  0  0  0  0  0
    0.6287    0.4142    0.0414 N   0  0  0  0  0  0  0  0  0  0  0  0
   -2.1378   -3.0449   -1.3648 O   0  0  0  0  0  0  0  0  0  0  0  0
   -0.5236    0.1803    0.5606 C   0  0  0  0  0  0  0  0  0  0  0  0
   -0.7140   -1.5565   -0.8651 N   0  0  0  0  0  0  0  0  0  0  0  0
    1.2033   -0.2390   -0.9435 C   0  0  0  0  0  0  0  0  0  0  0  0
    0.8530   -2.1112   -2.2959 N   0  0  0  0  0  0  0  0  0  0  0  0
    0.5432   -1.2834   -1.4105 C   0  0  0  0  0  0  0  0  0  0  0  0
   -1.0501   -2.5849   -1.5511 C   0  0  0  0  0  0  0  0  0  0  0  0
   -0.1378   -2.9266   -2.4155 C   0  0  0  0  0  0  0  0  0  0  0  0
   -0.2041   -4.0084   -3.2814 C   0  0  0  0  0  0  0  0  0  0  0  0
   -0.9713   -3.8260   -4.4216 C   0  0  0  0  0  0  0  0  0  0  0  0
   -0.4423   -3.8940   -5.4990 C   0  0  0  0  0  0  0  0  0  0  0  0
   -1.1653   -3.6941   -6.5768 C   0  0  0  0  0  0  0  0  0  0  0  0
   -2.2695   -3.4271   -6.5838 C   0  0  0  0  0  0  0  0  0  0  0  0
   -2.8169   -3.3642   -5.4618 C   0  0  0  0  0  0  0  0  0  0  0  0
   -2.2144   -3.5424   -4.4018 C   0  0  0  0  0  0  0  0  0  0  0  0
    2.4420    0.0978   -1.4180 C   0  0  0  0  0  0  0  0  0  0  0  0
    2.7163    0.2613   -2.5894 C   0  0  0  0  0  0  0  0  0  0  0  0
    3.8426    0.6164   -2.8996 C   0  0  0  0  0  0  0  0  0  0  0  0
    4.8511    0.6961   -2.1089 C   0  0  0  0  0  0  0  0  0  0  0  0
    4.6049    0.5005   -1.0430 C   0  0  0  0  0  0  0  0  0  0  0  0
    3.3638    0.2633   -0.6390 C   0  0  0  0  0  0  0  0  0  0  0  0
   -1.1168    0.9734    1.5349 C   0  0  0  0  0  0  0  0  0  0  0  0
   -1.4280    2.1690    1.3682 C   0  0  0  0  0  0  0  0  0  0  0  0
   -1.9444    2.8734    2.2222 C   0  0  0  0  0  0  0  0  0  0  0  0
   -2.1080    2.3505    3.2568 C   0  0  0  0  0  0  0  0  0  0  0  0
   -1.7538    1.1500    3.4820 C   0  0  0  0  0  0  0  0  0  0  0  0
   -1.2560    0.5018    2.6338 C   0  0  0  0  0  0  0  0  0  0  0  0
  1  4  1  0
  1  5  1  0
  2  4  1  0
  2  6  1  0
  3  9  2  0
  4 24  1  0
  5  8  1  0
  5  9  1  0
  6  8  1  0
  6 18  1  0
  7  8  1  0
  7 10  1  0
  9 10  1  0
 10 11  1  0
 11 12  1  0
 12 13  2  0
 12 17  1  0
 13 14  1  0
 14 15  2  0
 15 16  1  0
 16 17  2  0
 18 19  2  0
 18 23  1  0
 19 20  1  0
 20 21  2  0
 21 22  1  0
 22 23  2  0
 24 25  2  0
 24 29  1  0
 25 26  1  0
 26 27  2  0
 27 28  1  0
 28 29  2  0
M  END
$$$$
