examples/luxsit/5_docked.pdbqt
 OpenBabel01122516393D

 29 33  0  0  1  0  0  0  0  0999 V2000
    2.4350   -1.7150   -2.6700 C   0  0  0  0  0  3  0  0  0  0  0  0
    1.5220   -1.0020   -0.8250 N   0  0  0  0  0  4  0  0  0  0  0  0
    1.7930   -3.6460   -4.6370 O   0  0  0  0  0  0  0  0  0  0  0  0
    2.4910   -0.9250   -1.6670 C   0  0  0  0  0  0  0  0  0  0  0  0
    1.4570   -2.5300   -2.8670 N   0  0  0  0  0  0  0  0  0  0  0  0
    0.4890   -1.8110   -0.8760 C   0  0  0  0  0  0  0  0  0  0  0  0
   -0.4620   -3.4170   -2.2810 N   0  0  0  0  0  4  0  0  0  0  0  0
    0.4140   -2.5920   -1.9390 C   0  0  0  0  0  0  0  0  0  0  0  0
    1.0680   -3.4060   -3.7170 C   0  0  0  0  0  0  0  0  0  0  0  0
   -0.0650   -3.9530   -3.3850 C   0  0  2  0  0  3  0  0  0  0  0  0
    3.6070   -0.1150   -1.5020 C   0  0  0  0  0  0  0  0  0  0  0  0
    3.9310    0.4160   -0.4210 C   0  0  0  0  0  3  0  0  0  0  0  0
    4.2490    0.1640   -2.4810 C   0  0  0  0  0  3  0  0  0  0  0  0
    4.9080    1.1330   -0.2700 C   0  0  0  0  0  3  0  0  0  0  0  0
    5.2000    0.8510   -2.3740 C   0  0  0  0  0  3  0  0  0  0  0  0
    5.5290    1.3290   -1.2420 C   0  0  0  0  0  3  0  0  0  0  0  0
   -0.4900   -1.8060    0.0810 C   0  0  0  0  0  0  0  0  0  0  0  0
   -1.4280   -1.0360    0.1100 C   0  0  0  0  0  3  0  0  0  0  0  0
   -0.4580   -2.6230    0.9830 C   0  0  0  0  0  3  0  0  0  0  0  0
   -2.2780   -1.1540    0.9800 C   0  0  0  0  0  3  0  0  0  0  0  0
   -1.3260   -2.6110    1.9870 C   0  0  0  0  0  3  0  0  0  0  0  0
   -2.2110   -1.9390    1.9940 C   0  0  0  0  0  3  0  0  0  0  0  0
   -0.7480   -4.9150   -4.1140 C   0  0  0  0  0  2  0  0  0  0  0  0
   -1.6240   -4.4370   -5.0780 C   0  0  0  0  0  0  0  0  0  0  0  0
   -1.2610   -4.3830   -6.2220 C   0  0  0  0  0  3  0  0  0  0  0  0
   -2.7940   -4.0030   -4.8180 C   0  0  0  0  0  3  0  0  0  0  0  0
   -2.0830   -3.9040   -7.1280 C   0  0  0  0  0  3  0  0  0  0  0  0
   -3.5000   -3.5650   -5.7290 C   0  0  0  0  0  3  0  0  0  0  0  0
   -3.1240   -3.5000   -6.9190 C   0  0  0  0  0  3  0  0  0  0  0  0
  1  4  2  0  0  0  0
  3  9  2  0  0  0  0
  4 11  1  0  0  0  0
  4  2  1  0  0  0  0
  5  1  1  0  0  0  0
  5  8  1  0  0  0  0
  6  2  1  0  0  0  0
  6 17  1  0  0  0  0
  7  8  1  0  0  0  0
  8  6  2  0  0  0  0
  9 10  1  0  0  0  0
  9  5  1  0  0  0  0
 10 23  1  6  0  0  0
 10  7  1  0  0  0  0
 11 12  1  0  0  0  0
 12 14  2  0  0  0  0
 13 15  1  0  0  0  0
 13 11  2  0  0  0  0
 15 16  2  0  0  0  0
 16 14  1  0  0  0  0
 17 18  2  0  0  0  0
 17 19  1  0  0  0  0
 18 20  1  0  0  0  0
 19 21  2  0  0  0  0
 20 22  2  0  0  0  0
 21 22  1  0  0  0  0
 24 26  1  0  0  0  0
 24 23  1  0  0  0  0
 25 24  2  0  0  0  0
 27 29  2  0  0  0  0
 27 25  1  0  0  0  0
 28 26  2  0  0  0  0
 29 28  1  0  0  0  0
M  END
>  <MODEL>
1

>  <REMARK>
 VINA RESULT:   -17.440      0.000      0.000
 INTER + INTRA:         -21.709
 INTER:                 -20.673
 INTRA:                  -1.036
 UNBOUND:                -0.191
 Flexibility Score: inf
 Active torsions [ 4 ] -> [ 4 ]

>  <TORSDO>
F 4

$$$$
