MODEL 1
REMARK VINA RESULT:   -17.440      0.000      0.000
REMARK INTER + INTRA:         -21.709
REMARK INTER:                 -20.673
REMARK INTRA:                  -1.036
REMARK UNBOUND:                -0.191
REMARK Flexibility Score: inf
REMARK Active torsions [ 4 ] -> [ 4 ]
ROOT
ATOM      1  C1  LIG L   1       2.435  -1.715  -2.670  1.00  0.00     0.172 C 
ATOM      2  N1  LIG L   1       1.522  -1.002  -0.825  1.00  0.00     0.244 N 
ATOM      3  O1  LIG L   1       1.793  -3.646  -4.637  1.00  0.00    -0.269 OA
ATOM      4  C2  LIG L   1       2.491  -0.925  -1.667  1.00  0.00     0.112 C 
ATOM      5  N2  LIG L   1       1.457  -2.530  -2.867  1.00  0.00    -0.245 N 
ATOM      6  C3  LIG L   1       0.489  -1.811  -0.876  1.00  0.00     0.164 C 
ATOM      7  N3  LIG L   1      -0.462  -3.417  -2.281  1.00  0.00     0.256 N 
ATOM      8  C4  LIG L   1       0.414  -2.592  -1.939  1.00  0.00     0.213 C 
ATOM      9  C5  LIG L   1       1.068  -3.406  -3.717  1.00  0.00     0.268 C 
ATOM     10  C6  LIG L   1      -0.065  -3.953  -3.385  1.00  0.00     0.157 C 
ATOM     11  H1  LIG L   1       1.121  -0.065  -0.802  1.00  0.00     0.203 HD
ATOM     12  H2  LIG L   1       2.022  -1.424  -0.042  1.00  0.00     0.203 HD
ATOM     13  H3  LIG L   1      -1.353  -2.942  -2.425  1.00  0.00     0.204 HD
ATOM     14  H4  LIG L   1      -0.596  -4.125  -1.560  1.00  0.00     0.204 HD
ENDROOT
BRANCH    4   15
ATOM     15  C7  LIG L   1       3.607  -0.115  -1.502  1.00  0.00     0.002 A 
ATOM     16  C8  LIG L   1       3.931   0.416  -0.421  1.00  0.00     0.009 A 
ATOM     17  C9  LIG L   1       4.249   0.164  -2.481  1.00  0.00     0.009 A 
ATOM     18 C10  LIG L   1       4.908   1.133  -0.270  1.00  0.00     0.000 A 
ATOM     19 C11  LIG L   1       5.200   0.851  -2.374  1.00  0.00     0.000 A 
ATOM     20 C12  LIG L   1       5.529   1.329  -1.242  1.00  0.00     0.000 A 
ENDBRANCH    4   15
BRANCH    6   21
ATOM     21 C13  LIG L   1      -0.490  -1.806   0.081  1.00  0.00     0.007 A 
ATOM     22 C14  LIG L   1      -1.428  -1.036   0.110  1.00  0.00     0.009 A 
ATOM     23 C15  LIG L   1      -0.458  -2.623   0.983  1.00  0.00     0.009 A 
ATOM     24 C16  LIG L   1      -2.278  -1.154   0.980  1.00  0.00     0.000 A 
ATOM     25 C17  LIG L   1      -1.326  -2.611   1.987  1.00  0.00     0.000 A 
ATOM     26 C18  LIG L   1      -2.211  -1.939   1.994  1.00  0.00     0.000 A 
ENDBRANCH    6   21
BRANCH   10   27
ATOM     27 C19  LIG L   1      -0.748  -4.915  -4.114  1.00  0.00     0.099 C 
BRANCH   27   28
ATOM     28 C20  LIG L   1      -1.624  -4.437  -5.078  1.00  0.00    -0.042 A 
ATOM     29 C21  LIG L   1      -1.261  -4.383  -6.222  1.00  0.00     0.004 A 
ATOM     30 C22  LIG L   1      -2.794  -4.003  -4.818  1.00  0.00     0.004 A 
ATOM     31 C23  LIG L   1      -2.083  -3.904  -7.128  1.00  0.00     0.000 A 
ATOM     32 C24  LIG L   1      -3.500  -3.565  -5.729  1.00  0.00     0.000 A 
ATOM     33 C25  LIG L   1      -3.124  -3.500  -6.919  1.00  0.00     0.000 A 
ENDBRANCH   27   28
ENDBRANCH   10   27
TORSDOF 4
ENDMDL
