
     RDKit          3D

 29 33  0  0  0  0  0  0  0  0999 V2000
   -1.1892   -0.8030    0.0867 C   0  0  0  0  0  0  0  0  0  0  0  0
    0.6311    0.4260    0.0528 N   0  0  0  0  0  0  0  0  0  0  0  0
   -2.1655   -3.0477   -1.3581 O   0  0  0  0  0  0  0  0  0  0  0  0
   -0.5338    0.1866    0.5550 C   0  0  0  0  0  0  0  0  0  0  0  0
   -0.7128   -1.5635   -0.8671 N   0  0  0  0  0  0  0  0  0  0  0  0
    1.2058   -0.2298   -0.9498 C   0  0  0  0  0  0  0  0  0  0  0  0
    0.8540   -2.1140   -2.3003 N   0  0  0  0  0  0  0  0  0  0  0  0
    0.5478   -1.2748   -1.4113 C   0  0  0  0  0  0  0  0  0  0  0  0
   -1.0656   -2.5822   -1.5441 C   0  0  0  0  0  0  0  0  0  0  0  0
   -0.1421   -2.9279   -2.4147 C   0  0  0  0  0  0  0  0  0  0  0  0
   -0.2113   -3.9992   -3.2969 C   0  0  0  0  0  0  0  0  0  0  0  0
   -0.9834   -3.8268   -4.4149 C   0  0  0  0  0  0  0  0  0  0  0  0
   -0.4570   -3.9025   -5.5041 C   0  0  0  0  0  0  0  0  0  0  0  0
   -1.1658   -3.7021   -6.5901 C   0  0  0  0  0  0  0  0  0  0  0  0
   -2.2728   -3.4369   -6.5941 C   0  0  0  0  0  0  0  0  0  0  0  0
   -2.8286   -3.3618   -5.4661 C   0  0  0  0  0  0  0  0  0  0  0  0
   -2.2325   -3.5385   -4.3907 C   0  0  0  0  0  0  0  0  0  0  0  0
    2.4472    0.0954   -1.4170 C   0  0  0  0  0  0  0  0  0  0  0  0
    2.7305    0.2480   -2.6150 C   0  0  0  0  0  0  0  0  0  0  0  0
    3.8477    0.5958   -2.9430 C   0  0  0  0  0  0  0  0  0  0  0  0
    4.8342    0.6875   -2.1169 C   0  0  0  0  0  0  0  0  0  0  0  0
    4.6079    0.5007   -1.0297 C   0  0  0  0  0  0  0  0  0  0  0  0
    3.3692    0.2716   -0.6308 C   0  0  0  0  0  0  0  0  0  0  0  0
   -1.1262    0.9861    1.5504 C   0  0  0  0  0  0  0  0  0  0  0  0
   -1.4380    2.1702    1.3727 C   0  0  0  0  0  0  0  0  0  0  0  0
   -1.9485    2.8834    2.2287 C   0  0  0  0  0  0  0  0  0  0  0  0
   -2.1042    2.3461    3.2666 C   0  0  0  0  0  0  0  0  0  0  0  0
   -1.7573    1.1523    3.4954 C   0  0  0  0  0  0  0  0  0  0  0  0
   -1.2691    0.5084    2.6464 C   0  0  0  0  0  0  0  0  0  0  0  0
  1  4  1  0
  1  5  1  0
  2  4  1  0
  2  6  1  0
  3  9  2  0
  4 24  1  0
  5  8  1  0
  5  9  1  0
  6  8  1  0
  6 18  1  0
  7  8  1  0
  7 10  1  0
  9 10  1  0
 10 11  1  0
 11 12  1  0
 12 13  2  0
 12 17  1  0
 13 14  1  0
 14 15  2  0
 15 16  1  0
 16 17  2  0
 18 19  2  0
 18 23  1  0
 19 20  1  0
 20 21  2  0
 21 22  1  0
 22 23  2  0
 24 25  2  0
 24 29  1  0
 25 26  1  0
 26 27  2  0
 27 28  1  0
 28 29  2  0
M  END
$$$$
