examples/luxsit/6_docked.pdbqt
 OpenBabel01122516383D

 29 33  0  0  1  0  0  0  0  0999 V2000
   -0.4070   -2.8790   -2.8510 C   0  0  0  0  0  3  0  0  0  0  0  0
    1.2790   -1.8870   -3.8500 N   0  0  0  0  0  4  0  0  0  0  0  0
   -1.2280   -3.2970   -0.1620 O   0  0  0  0  0  0  0  0  0  0  0  0
    0.1880   -2.5700   -3.9370 C   0  0  0  0  0  0  0  0  0  0  0  0
    0.0570   -2.5220   -1.6790 N   0  0  0  0  0  0  0  0  0  0  0  0
    1.8840   -1.5090   -2.7290 C   0  0  0  0  0  0  0  0  0  0  0  0
    1.5410   -1.5230   -0.4100 N   0  0  0  0  0  4  0  0  0  0  0  0
    1.2550   -1.7950   -1.6070 C   0  0  0  0  0  0  0  0  0  0  0  0
   -0.2530   -2.6450   -0.4510 C   0  0  0  0  0  0  0  0  0  0  0  0
    0.6280   -2.0570    0.3310 C   0  0  2  0  0  3  0  0  0  0  0  0
   -0.3450   -3.0240   -5.1580 C   0  0  0  0  0  0  0  0  0  0  0  0
   -1.1110   -3.9920   -5.2460 C   0  0  0  0  0  3  0  0  0  0  0  0
    0.0210   -2.4830   -6.1690 C   0  0  0  0  0  3  0  0  0  0  0  0
   -1.5810   -4.4050   -6.3000 C   0  0  0  0  0  3  0  0  0  0  0  0
   -0.4040   -2.8430   -7.2000 C   0  0  0  0  0  3  0  0  0  0  0  0
   -1.2190   -3.8080   -7.2500 C   0  0  0  0  0  3  0  0  0  0  0  0
    3.0420   -0.7850   -2.7330 C   0  0  0  0  0  0  0  0  0  0  0  0
    3.3100    0.1070   -3.5530 C   0  0  0  0  0  3  0  0  0  0  0  0
    3.8930   -0.9870   -1.8770 C   0  0  0  0  0  3  0  0  0  0  0  0
    4.3400    0.7460   -3.4510 C   0  0  0  0  0  3  0  0  0  0  0  0
    5.0670   -0.3790   -1.8850 C   0  0  0  0  0  3  0  0  0  0  0  0
    5.2700    0.4630   -2.6040 C   0  0  0  0  0  3  0  0  0  0  0  0
    0.5780   -1.9980    1.7180 C   0  0  0  0  0  2  0  0  0  0  0  0
    0.0480   -0.8610    2.2670 C   0  0  0  0  0  0  0  0  0  0  0  0
   -0.9920   -0.9410    2.8840 C   0  0  0  0  0  3  0  0  0  0  0  0
    0.5560    0.3100    2.1330 C   0  0  0  0  0  3  0  0  0  0  0  0
   -1.5420    0.1400    3.3860 C   0  0  0  0  0  3  0  0  0  0  0  0
   -0.0310    1.2810    2.6370 C   0  0  0  0  0  3  0  0  0  0  0  0
   -1.1150    1.1890    3.2730 C   0  0  0  0  0  3  0  0  0  0  0  0
  1  5  1  0  0  0  0
  2  6  1  0  0  0  0
  4  2  1  0  0  0  0
  4  1  2  0  0  0  0
  5  8  1  0  0  0  0
  5  9  1  0  0  0  0
  6  8  2  0  0  0  0
  7 10  1  0  0  0  0
  8  7  1  0  0  0  0
  9  3  2  0  0  0  0
  9 10  1  0  0  0  0
 10 23  1  6  0  0  0
 11  4  1  0  0  0  0
 12 11  1  0  0  0  0
 13 11  2  0  0  0  0
 14 12  2  0  0  0  0
 15 13  1  0  0  0  0
 16 15  2  0  0  0  0
 16 14  1  0  0  0  0
 17  6  1  0  0  0  0
 17 19  1  0  0  0  0
 18 20  1  0  0  0  0
 18 17  2  0  0  0  0
 20 22  2  0  0  0  0
 21 19  2  0  0  0  0
 22 21  1  0  0  0  0
 23 24  1  0  0  0  0
 24 25  1  0  0  0  0
 25 27  2  0  0  0  0
 26 24  2  0  0  0  0
 26 28  1  0  0  0  0
 28 29  2  0  0  0  0
 29 27  1  0  0  0  0
M  END
>  <MODEL>
1

>  <REMARK>
 VINA RESULT:   -17.148      0.000      0.000
 INTER + INTRA:         -22.168
 INTER:                 -21.646
 INTRA:                  -0.522
 UNBOUND:                -1.010
 Flexibility Score: inf
 Active torsions [ 4 ] -> [ 4 ]

>  <TORSDO>
F 4

$$$$
