MODEL 1
REMARK VINA RESULT:   -17.148      0.000      0.000
REMARK INTER + INTRA:         -22.168
REMARK INTER:                 -21.646
REMARK INTRA:                  -0.522
REMARK UNBOUND:                -1.010
REMARK Flexibility Score: inf
REMARK Active torsions [ 4 ] -> [ 4 ]
ROOT
ATOM      1  C1  LIG L   1      -0.407  -2.879  -2.851  1.00  0.00     0.172 C 
ATOM      2  N1  LIG L   1       1.279  -1.887  -3.850  1.00  0.00     0.244 N 
ATOM      3  O1  LIG L   1      -1.228  -3.297  -0.162  1.00  0.00    -0.269 OA
ATOM      4  C2  LIG L   1       0.188  -2.570  -3.937  1.00  0.00     0.112 C 
ATOM      5  N2  LIG L   1       0.057  -2.522  -1.679  1.00  0.00    -0.245 N 
ATOM      6  C3  LIG L   1       1.884  -1.509  -2.729  1.00  0.00     0.164 C 
ATOM      7  N3  LIG L   1       1.541  -1.523  -0.410  1.00  0.00     0.256 N 
ATOM      8  C4  LIG L   1       1.255  -1.795  -1.607  1.00  0.00     0.213 C 
ATOM      9  C5  LIG L   1      -0.253  -2.645  -0.451  1.00  0.00     0.268 C 
ATOM     10  C6  LIG L   1       0.628  -2.057   0.331  1.00  0.00     0.157 C 
ATOM     11  H1  LIG L   1       1.092  -1.021  -4.356  1.00  0.00     0.203 HD
ATOM     12  H2  LIG L   1       1.945  -2.587  -4.176  1.00  0.00     0.203 HD
ATOM     13  H3  LIG L   1       1.554  -0.512  -0.274  1.00  0.00     0.204 HD
ATOM     14  H4  LIG L   1       2.462  -1.884  -0.166  1.00  0.00     0.204 HD
ENDROOT
BRANCH    4   15
ATOM     15  C7  LIG L   1      -0.345  -3.024  -5.158  1.00  0.00     0.002 A 
ATOM     16  C8  LIG L   1      -1.111  -3.992  -5.246  1.00  0.00     0.009 A 
ATOM     17  C9  LIG L   1       0.021  -2.483  -6.169  1.00  0.00     0.009 A 
ATOM     18 C10  LIG L   1      -1.581  -4.405  -6.300  1.00  0.00     0.000 A 
ATOM     19 C11  LIG L   1      -0.404  -2.843  -7.200  1.00  0.00     0.000 A 
ATOM     20 C12  LIG L   1      -1.219  -3.808  -7.250  1.00  0.00     0.000 A 
ENDBRANCH    4   15
BRANCH    6   21
ATOM     21 C13  LIG L   1       3.042  -0.785  -2.733  1.00  0.00     0.007 A 
ATOM     22 C14  LIG L   1       3.310   0.107  -3.553  1.00  0.00     0.009 A 
ATOM     23 C15  LIG L   1       3.893  -0.987  -1.877  1.00  0.00     0.009 A 
ATOM     24 C16  LIG L   1       4.340   0.746  -3.451  1.00  0.00     0.000 A 
ATOM     25 C17  LIG L   1       5.067  -0.379  -1.885  1.00  0.00     0.000 A 
ATOM     26 C18  LIG L   1       5.270   0.463  -2.604  1.00  0.00     0.000 A 
ENDBRANCH    6   21
BRANCH   10   27
ATOM     27 C19  LIG L   1       0.578  -1.998   1.718  1.00  0.00     0.099 C 
BRANCH   27   28
ATOM     28 C20  LIG L   1       0.048  -0.861   2.267  1.00  0.00    -0.042 A 
ATOM     29 C21  LIG L   1      -0.992  -0.941   2.884  1.00  0.00     0.004 A 
ATOM     30 C22  LIG L   1       0.556   0.310   2.133  1.00  0.00     0.004 A 
ATOM     31 C23  LIG L   1      -1.542   0.140   3.386  1.00  0.00     0.000 A 
ATOM     32 C24  LIG L   1      -0.031   1.281   2.637  1.00  0.00     0.000 A 
ATOM     33 C25  LIG L   1      -1.115   1.189   3.273  1.00  0.00     0.000 A 
ENDBRANCH   27   28
ENDBRANCH   10   27
TORSDOF 4
ENDMDL
