examples/luxsit/7_docked.pdbqt
 OpenBabel01122516373D

 29 33  0  0  1  0  0  0  0  0999 V2000
   -0.7870    0.0010   -0.0000 C   0  0  0  0  0  3  0  0  0  0  0  0
    0.8050   -0.6820   -1.3550 N   0  0  0  0  0  4  0  0  0  0  0  0
   -1.1790    2.2510    1.6950 O   0  0  0  0  0  0  0  0  0  0  0  0
   -0.3480   -0.8840   -0.8180 C   0  0  0  0  0  0  0  0  0  0  0  0
   -0.0810    1.0940    0.2790 N   0  0  0  0  0  0  0  0  0  0  0  0
    1.6250    0.3510   -1.1320 C   0  0  0  0  0  0  0  0  0  0  0  0
    1.6650    2.3710    0.0290 N   0  0  0  0  0  4  0  0  0  0  0  0
    1.1630    1.2880   -0.3250 C   0  0  0  0  0  0  0  0  0  0  0  0
   -0.1940    2.1410    0.9940 C   0  0  0  0  0  0  0  0  0  0  0  0
    0.8500    2.9260    0.8710 C   0  0  2  0  0  3  0  0  0  0  0  0
   -1.1090   -2.0300   -1.0190 C   0  0  0  0  0  0  0  0  0  0  0  0
   -1.3390   -2.5150   -2.1420 C   0  0  0  0  0  3  0  0  0  0  0  0
   -1.6430   -2.5290   -0.0620 C   0  0  0  0  0  3  0  0  0  0  0  0
   -2.0180   -3.5220   -2.3360 C   0  0  0  0  0  3  0  0  0  0  0  0
   -2.2880   -3.4960   -0.2030 C   0  0  0  0  0  3  0  0  0  0  0  0
   -2.4700   -3.9900   -1.3690 C   0  0  0  0  0  3  0  0  0  0  0  0
    2.8390    0.4800   -1.7450 C   0  0  0  0  0  0  0  0  0  0  0  0
    3.0230    0.8430   -2.9190 C   0  0  0  0  0  3  0  0  0  0  0  0
    3.8480    0.2260   -1.1040 C   0  0  0  0  0  3  0  0  0  0  0  0
    4.1310    0.9710   -3.3340 C   0  0  0  0  0  3  0  0  0  0  0  0
    5.0530    0.2380   -1.6650 C   0  0  0  0  0  3  0  0  0  0  0  0
    5.2020    0.6190   -2.7100 C   0  0  0  0  0  3  0  0  0  0  0  0
    1.0180    4.1470    1.5140 C   0  0  0  0  0  2  0  0  0  0  0  0
    0.8220    5.2700    0.7570 C   0  0  0  0  0  0  0  0  0  0  0  0
   -0.2930    5.7360    0.6810 C   0  0  0  0  0  3  0  0  0  0  0  0
    1.7460    5.8580    0.0730 C   0  0  0  0  0  3  0  0  0  0  0  0
   -0.5050    6.8010   -0.0720 C   0  0  0  0  0  3  0  0  0  0  0  0
    1.4430    6.8470   -0.6060 C   0  0  0  0  0  3  0  0  0  0  0  0
    0.2730    7.3110   -0.6880 C   0  0  0  0  0  3  0  0  0  0  0  0
  1  5  1  0  0  0  0
  2  6  1  0  0  0  0
  2  4  1  0  0  0  0
  4  1  2  0  0  0  0
  5  9  1  0  0  0  0
  6  8  2  0  0  0  0
  7 10  1  0  0  0  0
  8  7  1  0  0  0  0
  8  5  1  0  0  0  0
  9  3  2  0  0  0  0
 10  9  1  0  0  0  0
 10 23  1  6  0  0  0
 11  4  1  0  0  0  0
 11 13  1  0  0  0  0
 12 11  2  0  0  0  0
 14 12  1  0  0  0  0
 14 16  2  0  0  0  0
 15 13  2  0  0  0  0
 16 15  1  0  0  0  0
 17  6  1  0  0  0  0
 17 19  1  0  0  0  0
 18 17  2  0  0  0  0
 20 18  1  0  0  0  0
 20 22  2  0  0  0  0
 21 19  2  0  0  0  0
 22 21  1  0  0  0  0
 24 23  1  0  0  0  0
 25 24  1  0  0  0  0
 26 24  2  0  0  0  0
 27 25  2  0  0  0  0
 28 26  1  0  0  0  0
 29 28  2  0  0  0  0
 29 27  1  0  0  0  0
M  END
>  <MODEL>
1

>  <REMARK>
 VINA RESULT:   -11.128      0.000      0.000
 INTER + INTRA:         -13.980
 INTER:                 -12.963
 INTRA:                  -1.018
 UNBOUND:                -0.250
 Flexibility Score: inf
 Active torsions [ 4 ] -> [ 4 ]

>  <TORSDO>
F 4

$$$$
