MODEL 1
REMARK VINA RESULT:   -11.128      0.000      0.000
REMARK INTER + INTRA:         -13.980
REMARK INTER:                 -12.963
REMARK INTRA:                  -1.018
REMARK UNBOUND:                -0.250
REMARK Flexibility Score: inf
REMARK Active torsions [ 4 ] -> [ 4 ]
ROOT
ATOM      1  C1  LIG L   1      -0.787   0.001  -0.000  1.00  0.00     0.172 C 
ATOM      2  N1  LIG L   1       0.805  -0.682  -1.355  1.00  0.00     0.244 N 
ATOM      3  O1  LIG L   1      -1.179   2.251   1.695  1.00  0.00    -0.269 OA
ATOM      4  C2  LIG L   1      -0.348  -0.884  -0.818  1.00  0.00     0.112 C 
ATOM      5  N2  LIG L   1      -0.081   1.094   0.279  1.00  0.00    -0.245 N 
ATOM      6  C3  LIG L   1       1.625   0.351  -1.132  1.00  0.00     0.164 C 
ATOM      7  N3  LIG L   1       1.665   2.371   0.029  1.00  0.00     0.256 N 
ATOM      8  C4  LIG L   1       1.163   1.288  -0.325  1.00  0.00     0.213 C 
ATOM      9  C5  LIG L   1      -0.194   2.141   0.994  1.00  0.00     0.268 C 
ATOM     10  C6  LIG L   1       0.850   2.926   0.871  1.00  0.00     0.157 C 
ATOM     11  H1  LIG L   1       0.627  -0.666  -2.360  1.00  0.00     0.203 HD
ATOM     12  H2  LIG L   1       1.335  -1.418  -0.890  1.00  0.00     0.203 HD
ATOM     13  H3  LIG L   1       1.793   2.977  -0.781  1.00  0.00     0.204 HD
ATOM     14  H4  LIG L   1       2.577   2.218   0.461  1.00  0.00     0.204 HD
ENDROOT
BRANCH    4   15
ATOM     15  C7  LIG L   1      -1.109  -2.030  -1.019  1.00  0.00     0.002 A 
ATOM     16  C8  LIG L   1      -1.339  -2.515  -2.142  1.00  0.00     0.009 A 
ATOM     17  C9  LIG L   1      -1.643  -2.529  -0.062  1.00  0.00     0.009 A 
ATOM     18 C10  LIG L   1      -2.018  -3.522  -2.336  1.00  0.00     0.000 A 
ATOM     19 C11  LIG L   1      -2.288  -3.496  -0.203  1.00  0.00     0.000 A 
ATOM     20 C12  LIG L   1      -2.470  -3.990  -1.369  1.00  0.00     0.000 A 
ENDBRANCH    4   15
BRANCH    6   21
ATOM     21 C13  LIG L   1       2.839   0.480  -1.745  1.00  0.00     0.007 A 
ATOM     22 C14  LIG L   1       3.023   0.843  -2.919  1.00  0.00     0.009 A 
ATOM     23 C15  LIG L   1       3.848   0.226  -1.104  1.00  0.00     0.009 A 
ATOM     24 C16  LIG L   1       4.131   0.971  -3.334  1.00  0.00     0.000 A 
ATOM     25 C17  LIG L   1       5.053   0.238  -1.665  1.00  0.00     0.000 A 
ATOM     26 C18  LIG L   1       5.202   0.619  -2.710  1.00  0.00     0.000 A 
ENDBRANCH    6   21
BRANCH   10   27
ATOM     27 C19  LIG L   1       1.018   4.147   1.514  1.00  0.00     0.099 C 
BRANCH   27   28
ATOM     28 C20  LIG L   1       0.822   5.270   0.757  1.00  0.00    -0.042 A 
ATOM     29 C21  LIG L   1      -0.293   5.736   0.681  1.00  0.00     0.004 A 
ATOM     30 C22  LIG L   1       1.746   5.858   0.073  1.00  0.00     0.004 A 
ATOM     31 C23  LIG L   1      -0.505   6.801  -0.072  1.00  0.00     0.000 A 
ATOM     32 C24  LIG L   1       1.443   6.847  -0.606  1.00  0.00     0.000 A 
ATOM     33 C25  LIG L   1       0.273   7.311  -0.688  1.00  0.00     0.000 A 
ENDBRANCH   27   28
ENDBRANCH   10   27
TORSDOF 4
ENDMDL
