MODEL 1
REMARK VINA RESULT:   -14.936      0.000      0.000
REMARK INTER + INTRA:         -18.890
REMARK INTER:                 -18.311
REMARK INTRA:                  -0.579
REMARK UNBOUND:                -0.460
REMARK Flexibility Score: inf
REMARK Active torsions [ 4 ] -> [ 4 ]
ROOT
ATOM      1  C1  LIG L   1      -1.341  -0.774   0.054  1.00  0.00     0.172 C 
ATOM      2  N1  LIG L   1       0.596   0.562   0.040  1.00  0.00     0.244 N 
ATOM      3  O1  LIG L   1      -2.344  -3.200  -1.362  1.00  0.00    -0.269 OA
ATOM      4  C2  LIG L   1      -0.640   0.309   0.541  1.00  0.00     0.112 C 
ATOM      5  N2  LIG L   1      -0.823  -1.569  -0.898  1.00  0.00    -0.245 N 
ATOM      6  C3  LIG L   1       1.188  -0.179  -0.910  1.00  0.00     0.164 C 
ATOM      7  N3  LIG L   1       0.800  -2.156  -2.314  1.00  0.00     0.256 N 
ATOM      8  C4  LIG L   1       0.475  -1.257  -1.387  1.00  0.00     0.213 C 
ATOM      9  C5  LIG L   1      -1.214  -2.666  -1.574  1.00  0.00     0.268 C 
ATOM     10  C6  LIG L   1      -0.220  -3.040  -2.454  1.00  0.00     0.157 C 
ATOM     11  H1  LIG L   1       1.228   0.541   0.840  1.00  0.00     0.203 HD
ATOM     12  H2  LIG L   1       0.424   1.428  -0.470  1.00  0.00     0.203 HD
ATOM     13  H3  LIG L   1       1.644  -2.652  -2.027  1.00  0.00     0.204 HD
ATOM     14  H4  LIG L   1       0.970  -1.686  -3.203  1.00  0.00     0.204 HD
ENDROOT
BRANCH    4   15
ATOM     15  C7  LIG L   1      -1.216   1.163   1.577  1.00  0.00     0.002 A 
ATOM     16  C8  LIG L   1      -1.472   0.756   2.860  1.00  0.00     0.009 A 
ATOM     17  C9  LIG L   1      -1.521   2.461   1.234  1.00  0.00     0.009 A 
ATOM     18 C10  LIG L   1      -2.017   1.589   3.816  1.00  0.00     0.000 A 
ATOM     19 C11  LIG L   1      -2.066   3.317   2.165  1.00  0.00     0.000 A 
ATOM     20 C12  LIG L   1      -2.312   2.886   3.445  1.00  0.00     0.000 A 
ENDBRANCH    4   15
BRANCH    6   21
ATOM     21 C13  LIG L   1       2.499   0.143  -1.398  1.00  0.00     0.007 A 
ATOM     22 C14  LIG L   1       2.762   0.591  -2.653  1.00  0.00     0.009 A 
ATOM     23 C15  LIG L   1       3.587  -0.011  -0.538  1.00  0.00     0.009 A 
ATOM     24 C16  LIG L   1       4.039   0.893  -3.100  1.00  0.00     0.000 A 
ATOM     25 C17  LIG L   1       4.870   0.283  -0.957  1.00  0.00     0.000 A 
ATOM     26 C18  LIG L   1       5.096   0.740  -2.251  1.00  0.00     0.000 A 
ENDBRANCH    6   21
BRANCH   10   27
ATOM     27 C19  LIG L   1      -0.303  -4.205  -3.365  1.00  0.00     0.099 C 
BRANCH   27   28
ATOM     28 C20  LIG L   1      -1.019  -3.951  -4.612  1.00  0.00    -0.042 A 
ATOM     29 C21  LIG L   1      -0.411  -4.230  -5.830  1.00  0.00     0.004 A 
ATOM     30 C22  LIG L   1      -2.296  -3.436  -4.657  1.00  0.00     0.004 A 
ATOM     31 C23  LIG L   1      -1.057  -4.001  -7.038  1.00  0.00     0.000 A 
ATOM     32 C24  LIG L   1      -2.961  -3.201  -5.863  1.00  0.00     0.000 A 
ATOM     33 C25  LIG L   1      -2.340  -3.486  -7.057  1.00  0.00     0.000 A 
ENDBRANCH   27   28
ENDBRANCH   10   27
TORSDOF 4
ENDMDL
