examples/luxsit/luxsit_pocket_docked.pdbqt
 OpenBabel01122516393D

 29 33  0  0  1  0  0  0  0  0999 V2000
   -1.3410   -0.7740    0.0540 C   0  0  0  0  0  3  0  0  0  0  0  0
    0.5960    0.5620    0.0400 N   0  0  0  0  0  4  0  0  0  0  0  0
   -2.3440   -3.2000   -1.3620 O   0  0  0  0  0  0  0  0  0  0  0  0
   -0.6400    0.3090    0.5410 C   0  0  0  0  0  0  0  0  0  0  0  0
   -0.8230   -1.5690   -0.8980 N   0  0  0  0  0  0  0  0  0  0  0  0
    1.1880   -0.1790   -0.9100 C   0  0  0  0  0  0  0  0  0  0  0  0
    0.8000   -2.1560   -2.3140 N   0  0  0  0  0  4  0  0  0  0  0  0
    0.4750   -1.2570   -1.3870 C   0  0  0  0  0  0  0  0  0  0  0  0
   -1.2140   -2.6660   -1.5740 C   0  0  0  0  0  0  0  0  0  0  0  0
   -0.2200   -3.0400   -2.4540 C   0  0  1  0  0  3  0  0  0  0  0  0
   -1.2160    1.1630    1.5770 C   0  0  0  0  0  0  0  0  0  0  0  0
   -1.4720    0.7560    2.8600 C   0  0  0  0  0  3  0  0  0  0  0  0
   -1.5210    2.4610    1.2340 C   0  0  0  0  0  3  0  0  0  0  0  0
   -2.0170    1.5890    3.8160 C   0  0  0  0  0  3  0  0  0  0  0  0
   -2.0660    3.3170    2.1650 C   0  0  0  0  0  3  0  0  0  0  0  0
   -2.3120    2.8860    3.4450 C   0  0  0  0  0  3  0  0  0  0  0  0
    2.4990    0.1430   -1.3980 C   0  0  0  0  0  0  0  0  0  0  0  0
    2.7620    0.5910   -2.6530 C   0  0  0  0  0  3  0  0  0  0  0  0
    3.5870   -0.0110   -0.5380 C   0  0  0  0  0  3  0  0  0  0  0  0
    4.0390    0.8930   -3.1000 C   0  0  0  0  0  3  0  0  0  0  0  0
    4.8700    0.2830   -0.9570 C   0  0  0  0  0  3  0  0  0  0  0  0
    5.0960    0.7400   -2.2510 C   0  0  0  0  0  3  0  0  0  0  0  0
   -0.3030   -4.2050   -3.3650 C   0  0  0  0  0  2  0  0  0  0  0  0
   -1.0190   -3.9510   -4.6120 C   0  0  0  0  0  0  0  0  0  0  0  0
   -0.4110   -4.2300   -5.8300 C   0  0  0  0  0  3  0  0  0  0  0  0
   -2.2960   -3.4360   -4.6570 C   0  0  0  0  0  3  0  0  0  0  0  0
   -1.0570   -4.0010   -7.0380 C   0  0  0  0  0  3  0  0  0  0  0  0
   -2.9610   -3.2010   -5.8630 C   0  0  0  0  0  3  0  0  0  0  0  0
   -2.3400   -3.4860   -7.0570 C   0  0  0  0  0  3  0  0  0  0  0  0
  1  4  2  0  0  0  0
  2  4  1  0  0  0  0
  4 11  1  0  0  0  0
  5  1  1  0  0  0  0
  6  2  1  0  0  0  0
  7  8  1  0  0  0  0
  8  6  2  0  0  0  0
  8  5  1  0  0  0  0
  9  3  2  0  0  0  0
  9  5  1  0  0  0  0
 10 23  1  6  0  0  0
 10  7  1  0  0  0  0
 10  9  1  0  0  0  0
 11 12  1  0  0  0  0
 12 14  2  0  0  0  0
 13 11  2  0  0  0  0
 13 15  1  0  0  0  0
 15 16  2  0  0  0  0
 16 14  1  0  0  0  0
 17  6  1  0  0  0  0
 17 19  1  0  0  0  0
 18 17  2  0  0  0  0
 20 18  1  0  0  0  0
 20 22  2  0  0  0  0
 21 19  2  0  0  0  0
 22 21  1  0  0  0  0
 24 23  1  0  0  0  0
 25 24  2  0  0  0  0
 26 24  1  0  0  0  0
 27 25  1  0  0  0  0
 28 26  2  0  0  0  0
 29 27  2  0  0  0  0
 29 28  1  0  0  0  0
M  END
>  <MODEL>
1

>  <REMARK>
 VINA RESULT:   -14.936      0.000      0.000
 INTER + INTRA:         -18.890
 INTER:                 -18.311
 INTRA:                  -0.579
 UNBOUND:                -0.460
 Flexibility Score: inf
 Active torsions [ 4 ] -> [ 4 ]

>  <TORSDO>
F 4

$$$$
