
     RDKit          3D

 24 27  0  0  0  0  0  0  0  0999 V2000
    1.5720    1.9351   31.9772 C   0  0  0  0  0  0  0  0  0  0  0  0
    2.4712    3.3720   30.8602 N   0  0  0  0  0  0  0  0  0  0  0  0
    0.1233   -1.1283   30.4383 O   0  0  0  0  0  0  0  0  0  0  0  0
    1.5348    1.4780   30.7828 C   0  0  0  0  0  0  0  0  0  0  0  0
    0.8836   -0.7431   32.0515 N   0  0  0  0  0  0  0  0  0  0  0  0
    1.2762    1.1397   33.1110 C   0  0  0  0  0  0  0  0  0  0  0  0
    3.2881    5.7087   37.2441 N   0  0  0  0  0  0  0  0  0  0  0  0
    2.1528    3.1186   31.9801 C   0  0  0  0  0  0  0  0  0  0  0  0
    2.0757    2.4394   30.1655 C   0  0  0  0  0  0  0  0  0  0  0  0
    1.1307    0.4496   30.2961 C   0  0  0  0  0  0  0  0  0  0  0  0
    1.4628   -0.2907   32.8212 C   0  0  0  0  0  0  0  0  0  0  0  0
    2.5793    3.9263   33.0529 C   0  0  0  0  0  0  0  0  0  0  0  0
    0.7422   -0.5090   30.9216 C   0  0  0  0  0  0  0  0  0  0  0  0
    2.0303    2.3519   29.0715 C   0  0  0  0  0  0  0  0  0  0  0  0
    1.1346    0.4027   29.1549 C   0  0  0  0  0  0  0  0  0  0  0  0
    1.5277    1.3443   28.4576 C   0  0  0  0  0  0  0  0  0  0  0  0
    3.7005    4.0921   33.5434 C   0  0  0  0  0  0  0  0  0  0  0  0
    1.8920    4.4947   33.5876 C   0  0  0  0  0  0  0  0  0  0  0  0
    3.3904    5.2630   35.0307 C   0  0  0  0  0  0  0  0  0  0  0  0
    4.2224    4.6685   34.5549 C   0  0  0  0  0  0  0  0  0  0  0  0
    2.1800    5.2604   34.6294 C   0  0  0  0  0  0  0  0  0  0  0  0
    3.7477    6.1077   36.1126 C   0  0  0  0  0  0  0  0  0  0  0  0
    4.2388    5.5552   38.2500 C   0  0  0  0  0  0  0  0  0  0  0  0
    1.4257    1.3397   27.1319 F   0  0  0  0  0  0  0  0  0  0  0  0
  1  4  1  0
  1  6  1  0
  1  8  1  0
  2  8  1  0
  2  9  1  0
  3 13  2  0
  4  9  1  0
  4 10  1  0
  5 11  1  0
  5 13  1  0
  6 11  1  0
  7 22  1  0
  7 23  1  0
  8 12  1  0
  9 14  1  0
 10 13  1  0
 10 15  1  0
 12 17  1  0
 12 18  1  0
 14 16  1  0
 15 16  1  0
 16 24  1  0
 17 20  1  0
 18 21  1  0
 19 20  1  0
 19 21  1  0
 19 22  1  0
M  END
$$$$
