examples/PiB/0_docked.pdbqt
 OpenBabel01122516333D

 24 27  0  0  0  0  0  0  0  0999 V2000
    1.6910    2.1700   28.6010 C   0  0  0  0  0  0  0  0  0  0  0  0
    0.8510    1.2740   28.4670 C   0  0  0  0  0  3  0  0  0  0  0  0
    2.1270    2.3610   27.6770 C   0  0  0  0  0  3  0  0  0  0  0  0
    0.9760    0.7930   26.6140 C   0  0  0  0  0  0  0  0  0  0  0  0
    0.4530    0.4700   27.5600 C   0  0  0  0  0  3  0  0  0  0  0  0
    1.8330    1.7350   26.5490 C   0  0  0  0  0  3  0  0  0  0  0  0
    2.1080    2.8780   29.7450 C   0  0  0  0  0  0  0  0  0  0  0  0
    2.2300    2.4840   30.9980 C   0  0  0  0  0  0  0  0  0  0  0  0
    2.4520    3.4970   31.7470 C   0  0  0  0  0  0  0  0  0  0  0  0
    1.9020    1.2070   31.5150 C   0  0  0  0  0  2  0  0  0  0  0  0
    2.4680    4.4120   30.8750 C   0  0  0  0  0  0  0  0  0  0  0  0
    2.6060    3.6370   32.9360 C   0  0  0  0  0  0  0  0  0  0  0  0
    1.3340    1.3100   32.8690 C   0  0  0  0  0  2  0  0  0  0  0  0
    2.2300    4.0630   29.7220 N   0  0  0  0  0  4  0  0  0  0  0  0
    2.7940    5.3890   31.2570 C   0  0  0  0  0  3  0  0  0  0  0  0
    2.4520    2.7680   33.7630 C   0  0  0  0  0  0  0  0  0  0  0  0
    2.9140    4.6820   33.2790 C   0  0  0  0  0  3  0  0  0  0  0  0
    1.9220    1.7410   33.6450 N   0  0  0  0  0  0  0  0  0  0  0  0
    3.0800    5.6140   32.4870 C   0  0  0  0  0  0  0  0  0  0  0  0
    2.9370    2.8950   34.6290 O   0  0  0  0  0  0  0  0  0  0  0  0
    3.5500    6.7980   32.8670 F   0  0  0  0  0  0  0  0  0  0  0  0
    0.5970    0.1300   25.4180 C   0  0  0  0  0  2  0  0  0  0  0  0
   -0.6250    0.3410   25.0840 N   0  0  0  0  0  4  0  0  0  0  0  0
   -1.2610   -0.7260   24.4540 C   0  0  0  0  0  1  0  0  0  0  0  0
  1  7  1  0  0  0  0
  2  1  1  0  0  0  0
  3  1  2  0  0  0  0
  4  5  1  0  0  0  0
  5  2  2  0  0  0  0
  6  4  2  0  0  0  0
  6  3  1  0  0  0  0
  7  8  2  0  0  0  0
  8 10  1  0  0  0  0
  8  9  1  0  0  0  0
  9 12  1  0  0  0  0
 10 13  1  0  0  0  0
 11 15  1  0  0  0  0
 11  9  2  0  0  0  0
 12 17  2  0  0  0  0
 12 16  1  0  0  0  0
 13 18  1  0  0  0  0
 14  7  1  0  0  0  0
 14 11  1  0  0  0  0
 15 19  2  0  0  0  0
 16 20  2  0  0  0  0
 18 16  1  0  0  0  0
 19 21  1  0  0  0  0
 19 17  1  0  0  0  0
 22  4  1  0  0  0  0
 23 22  1  0  0  0  0
 24 23  1  0  0  0  0
M  END
>  <MODEL>
1

>  <REMARK>
 VINA RESULT:   -11.866      0.000      0.000
 INTER + INTRA:         -14.782
 INTER:                 -14.205
 INTRA:                  -0.576
 UNBOUND:                -0.834
 Flexibility Score: inf
 Active torsions [ 3 ] -> [ 3 ]

>  <TORSDO>
F 3

$$$$
