MODEL 1
REMARK VINA RESULT:   -11.866      0.000      0.000
REMARK INTER + INTRA:         -14.782
REMARK INTER:                 -14.205
REMARK INTRA:                  -0.576
REMARK UNBOUND:                -0.834
REMARK Flexibility Score: inf
REMARK Active torsions [ 3 ] -> [ 3 ]
ROOT
ATOM      1  C1  LIG L   1       1.691   2.170  28.601  1.00  0.00     0.038 C 
ATOM      2  C2  LIG L   1       0.851   1.274  28.467  1.00  0.00     0.009 C 
ATOM      3  C3  LIG L   1       2.127   2.361  27.677  1.00  0.00     0.009 C 
ATOM      4  C4  LIG L   1       0.976   0.793  26.614  1.00  0.00     0.034 C 
ATOM      5  C5  LIG L   1       0.453   0.470  27.560  1.00  0.00     0.009 C 
ATOM      6  C6  LIG L   1       1.833   1.735  26.549  1.00  0.00     0.009 C 
ENDROOT
BRANCH    1    7
ATOM      7  C7  LIG L   1       2.108   2.878  29.745  1.00  0.00     0.069 C 
ATOM      8  C8  LIG L   1       2.230   2.484  30.998  1.00  0.00     0.048 C 
ATOM      9  C9  LIG L   1       2.452   3.497  31.747  1.00  0.00     0.058 C 
ATOM     10 C10  LIG L   1       1.902   1.207  31.515  1.00  0.00     0.028 C 
ATOM     11 C11  LIG L   1       2.468   4.412  30.875  1.00  0.00     0.070 C 
ATOM     12 C12  LIG L   1       2.606   3.637  32.936  1.00  0.00     0.086 C 
ATOM     13 C13  LIG L   1       1.334   1.310  32.869  1.00  0.00     0.104 C 
ATOM     14  N1  LIG L   1       2.230   4.063  29.722  1.00  0.00     0.232 N 
ATOM     15 C14  LIG L   1       2.794   5.389  31.257  1.00  0.00     0.091 C 
ATOM     16 C15  LIG L   1       2.452   2.768  33.763  1.00  0.00     0.217 C 
ATOM     17 C16  LIG L   1       2.914   4.682  33.279  1.00  0.00     0.050 C 
ATOM     18  N2  LIG L   1       1.922   1.741  33.645  1.00  0.00    -0.315 N 
ATOM     19  H1  LIG L   1       1.368   4.498  29.393  1.00  0.00     0.202 HD
ATOM     20  H2  LIG L   1       2.978   4.344  29.089  1.00  0.00     0.202 HD
ATOM     21 C17  LIG L   1       3.080   5.614  32.487  1.00  0.00     0.172 C 
ATOM     22  O1  LIG L   1       2.937   2.895  34.629  1.00  0.00    -0.276 OA
ATOM     23  H3  LIG L   1       2.041   1.148  34.421  1.00  0.00     0.149 HD
ATOM     24  F1  LIG L   1       3.550   6.798  32.867  1.00  0.00    -0.245 F 
ENDBRANCH    1    7
BRANCH    4   25
ATOM     25 C18  LIG L   1       0.597   0.130  25.418  1.00  0.00     0.132 C 
BRANCH   25   26
ATOM     26  N3  LIG L   1      -0.625   0.341  25.084  1.00  0.00     0.225 N 
ATOM     27 C19  LIG L   1      -1.261  -0.726  24.454  1.00  0.00     0.188 C 
ATOM     28  H4  LIG L   1      -0.646   1.140  24.449  1.00  0.00     0.201 HD
ATOM     29  H5  LIG L   1      -1.133   0.499  25.953  1.00  0.00     0.201 HD
ENDBRANCH   25   26
ENDBRANCH    4   25
TORSDOF 3
ENDMDL
