
     RDKit          3D

 24 27  0  0  0  0  0  0  0  0999 V2000
    1.5678    1.9352   31.9642 C   0  0  0  0  0  0  0  0  0  0  0  0
    2.4466    3.3841   30.8778 N   0  0  0  0  0  0  0  0  0  0  0  0
    0.1483   -1.1203   30.4371 O   0  0  0  0  0  0  0  0  0  0  0  0
    1.5228    1.4548   30.7786 C   0  0  0  0  0  0  0  0  0  0  0  0
    0.8823   -0.7538   32.0604 N   0  0  0  0  0  0  0  0  0  0  0  0
    1.2501    1.1373   33.1121 C   0  0  0  0  0  0  0  0  0  0  0  0
    3.2932    5.7065   37.2389 N   0  0  0  0  0  0  0  0  0  0  0  0
    2.1386    3.1443   31.9805 C   0  0  0  0  0  0  0  0  0  0  0  0
    2.0588    2.4223   30.1576 C   0  0  0  0  0  0  0  0  0  0  0  0
    1.1445    0.4218   30.2761 C   0  0  0  0  0  0  0  0  0  0  0  0
    1.4158   -0.3121   32.8415 C   0  0  0  0  0  0  0  0  0  0  0  0
    2.5630    3.9468   33.0488 C   0  0  0  0  0  0  0  0  0  0  0  0
    0.7287   -0.5103   30.9320 C   0  0  0  0  0  0  0  0  0  0  0  0
    2.0223    2.2878   29.0632 C   0  0  0  0  0  0  0  0  0  0  0  0
    1.2102    0.3838   29.1303 C   0  0  0  0  0  0  0  0  0  0  0  0
    1.5784    1.2826   28.4414 C   0  0  0  0  0  0  0  0  0  0  0  0
    3.7094    4.1255   33.5496 C   0  0  0  0  0  0  0  0  0  0  0  0
    1.8851    4.5098   33.6068 C   0  0  0  0  0  0  0  0  0  0  0  0
    3.3894    5.2643   35.0480 C   0  0  0  0  0  0  0  0  0  0  0  0
    4.2041    4.6903   34.5723 C   0  0  0  0  0  0  0  0  0  0  0  0
    2.1717    5.2651   34.6375 C   0  0  0  0  0  0  0  0  0  0  0  0
    3.7400    6.1381   36.1571 C   0  0  0  0  0  0  0  0  0  0  0  0
    4.2373    5.5558   38.2454 C   0  0  0  0  0  0  0  0  0  0  0  0
    1.5005    1.2735   27.1524 F   0  0  0  0  0  0  0  0  0  0  0  0
  1  4  1  0
  1  6  1  0
  1  8  1  0
  2  8  1  0
  2  9  1  0
  3 13  2  0
  4  9  1  0
  4 10  1  0
  5 11  1  0
  5 13  1  0
  6 11  1  0
  7 22  1  0
  7 23  1  0
  8 12  1  0
  9 14  1  0
 10 13  1  0
 10 15  1  0
 12 17  1  0
 12 18  1  0
 14 16  1  0
 15 16  1  0
 16 24  1  0
 17 20  1  0
 18 21  1  0
 19 20  1  0
 19 21  1  0
 19 22  1  0
M  END
$$$$
