examples/PiB/1_docked.pdbqt
 OpenBabel01122516333D

 24 27  0  0  0  0  0  0  0  0999 V2000
    4.3280    6.5690   36.5690 C   0  0  0  0  0  0  0  0  0  0  0  0
    4.5170    7.8170   36.6220 C   0  0  0  0  0  3  0  0  0  0  0  0
    4.8720    6.1360   37.3460 C   0  0  0  0  0  3  0  0  0  0  0  0
    5.7430    8.0410   38.0670 C   0  0  0  0  0  0  0  0  0  0  0  0
    5.2510    8.6240   37.2690 C   0  0  0  0  0  3  0  0  0  0  0  0
    5.6140    6.7720   38.2180 C   0  0  0  0  0  3  0  0  0  0  0  0
    3.5910    5.7860   35.6690 C   0  0  0  0  0  0  0  0  0  0  0  0
    3.5210    5.8140   34.3340 C   0  0  0  0  0  0  0  0  0  0  0  0
    2.5750    5.0710   33.8990 C   0  0  0  0  0  0  0  0  0  0  0  0
    4.2260    6.7170   33.4720 C   0  0  0  0  0  2  0  0  0  0  0  0
    2.1480    4.6320   35.0100 C   0  0  0  0  0  0  0  0  0  0  0  0
    2.1110    4.8030   32.8150 C   0  0  0  0  0  0  0  0  0  0  0  0
    3.4250    7.0780   32.2770 C   0  0  0  0  0  2  0  0  0  0  0  0
    2.7270    5.0870   36.0350 N   0  0  0  0  0  4  0  0  0  0  0  0
    1.3790    3.8500   34.8830 C   0  0  0  0  0  3  0  0  0  0  0  0
    2.4970    5.3290   31.7920 C   0  0  0  0  0  0  0  0  0  0  0  0
    1.2760    4.0140   32.8210 C   0  0  0  0  0  3  0  0  0  0  0  0
    3.0810    6.3250   31.6400 N   0  0  0  0  0  0  0  0  0  0  0  0
    0.8880    3.4460   33.7930 C   0  0  0  0  0  0  0  0  0  0  0  0
    2.3190    4.8100   30.9830 O   0  0  0  0  0  0  0  0  0  0  0  0
    0.0570    2.4580   33.7570 F   0  0  0  0  0  0  0  0  0  0  0  0
    6.5180    8.7740   39.0560 C   0  0  0  0  0  2  0  0  0  0  0  0
    5.9440    8.7960   40.1630 N   0  0  0  0  0  4  0  0  0  0  0  0
    5.6800   10.0640   40.6620 C   0  0  0  0  0  1  0  0  0  0  0  0
  1  2  2  0  0  0  0
  1  3  1  0  0  0  0
  2  5  1  0  0  0  0
  3  6  2  0  0  0  0
  4  6  1  0  0  0  0
  4 22  1  0  0  0  0
  5  4  2  0  0  0  0
  7 14  1  0  0  0  0
  7  1  1  0  0  0  0
  8  7  2  0  0  0  0
  9  8  1  0  0  0  0
  9 11  1  0  0  0  0
 10  8  1  0  0  0  0
 11 14  1  0  0  0  0
 12 17  1  0  0  0  0
 12  9  2  0  0  0  0
 13 10  1  0  0  0  0
 15 11  2  0  0  0  0
 16 12  1  0  0  0  0
 17 19  2  0  0  0  0
 18 16  1  0  0  0  0
 18 13  1  0  0  0  0
 19 15  1  0  0  0  0
 20 16  2  0  0  0  0
 21 19  1  0  0  0  0
 22 23  1  0  0  0  0
 23 24  1  0  0  0  0
M  END
>  <MODEL>
1

>  <REMARK>
 VINA RESULT:    -8.272      0.000      0.000
 INTER + INTRA:          -9.982
 INTER:                  -9.292
 INTRA:                  -0.690
 UNBOUND:                -0.260
 Flexibility Score: inf
 Active torsions [ 3 ] -> [ 3 ]

>  <TORSDO>
F 3

$$$$
