examples/PiB/2_docked.pdbqt
 OpenBabel01122516333D

 24 27  0  0  0  0  0  0  0  0999 V2000
    1.9740    2.0710   28.7560 C   0  0  0  0  0  0  0  0  0  0  0  0
    1.3270    1.0320   28.6760 C   0  0  0  0  0  3  0  0  0  0  0  0
    2.1690    2.4340   27.7760 C   0  0  0  0  0  3  0  0  0  0  0  0
    1.1430    0.7320   26.7650 C   0  0  0  0  0  0  0  0  0  0  0  0
    0.9090    0.2390   27.7620 C   0  0  0  0  0  3  0  0  0  0  0  0
    1.7700    1.8510   26.6430 C   0  0  0  0  0  3  0  0  0  0  0  0
    2.4790    2.7540   29.8830 C   0  0  0  0  0  0  0  0  0  0  0  0
    2.4290    2.4440   31.1680 C   0  0  0  0  0  0  0  0  0  0  0  0
    2.8390    3.4170   31.8460 C   0  0  0  0  0  0  0  0  0  0  0  0
    1.7790    1.3270   31.7150 C   0  0  0  0  0  2  0  0  0  0  0  0
    3.1260    4.2330   30.9350 C   0  0  0  0  0  0  0  0  0  0  0  0
    2.9700    3.6050   33.0370 C   0  0  0  0  0  0  0  0  0  0  0  0
    1.1950    1.6460   33.0180 C   0  0  0  0  0  2  0  0  0  0  0  0
    2.8760    3.8460   29.8000 N   0  0  0  0  0  4  0  0  0  0  0  0
    3.6620    5.1240   31.2850 C   0  0  0  0  0  3  0  0  0  0  0  0
    2.5880    2.8590   33.9100 C   0  0  0  0  0  0  0  0  0  0  0  0
    3.5020    4.5670   33.3360 C   0  0  0  0  0  3  0  0  0  0  0  0
    1.8310    1.9680   33.8160 N   0  0  0  0  0  0  0  0  0  0  0  0
    3.9240    5.3760   32.5010 C   0  0  0  0  0  0  0  0  0  0  0  0
    3.0480    2.9150   34.8080 O   0  0  0  0  0  0  0  0  0  0  0  0
    4.6340    6.4330   32.8460 F   0  0  0  0  0  0  0  0  0  0  0  0
    0.6510    0.1080   25.6220 C   0  0  0  0  0  2  0  0  0  0  0  0
   -0.6130    0.3420   25.4140 N   0  0  0  0  0  4  0  0  0  0  0  0
   -1.2530   -0.6010   24.6050 C   0  0  0  0  0  1  0  0  0  0  0  0
  1  7  1  0  0  0  0
  2  1  1  0  0  0  0
  3  1  2  0  0  0  0
  4  5  1  0  0  0  0
  5  2  2  0  0  0  0
  6  4  2  0  0  0  0
  6  3  1  0  0  0  0
  7  8  2  0  0  0  0
  8 10  1  0  0  0  0
  8  9  1  0  0  0  0
  9 12  1  0  0  0  0
 10 13  1  0  0  0  0
 11 15  1  0  0  0  0
 11  9  2  0  0  0  0
 12 17  2  0  0  0  0
 12 16  1  0  0  0  0
 13 18  1  0  0  0  0
 14  7  1  0  0  0  0
 14 11  1  0  0  0  0
 15 19  2  0  0  0  0
 16 20  2  0  0  0  0
 18 16  1  0  0  0  0
 19 21  1  0  0  0  0
 19 17  1  0  0  0  0
 22  4  1  0  0  0  0
 23 22  1  0  0  0  0
 24 23  1  0  0  0  0
M  END
>  <MODEL>
1

>  <REMARK>
 VINA RESULT:   -11.731      0.000      0.000
 INTER + INTRA:         -14.416
 INTER:                 -13.987
 INTRA:                  -0.429
 UNBOUND:                -0.627
 Flexibility Score: inf
 Active torsions [ 3 ] -> [ 3 ]

>  <TORSDO>
F 3

$$$$
