MODEL 1
REMARK VINA RESULT:    -6.810      0.000      0.000
REMARK INTER + INTRA:          -8.856
REMARK INTER:                  -8.254
REMARK INTRA:                  -0.602
REMARK UNBOUND:                -0.851
REMARK Flexibility Score: inf
REMARK Active torsions [ 3 ] -> [ 3 ]
ROOT
ATOM      1  C1  LIG L   1       3.451   7.400  31.180  1.00  0.00     0.038 C 
ATOM      2  C2  LIG L   1       4.615   7.797  31.011  1.00  0.00     0.009 C 
ATOM      3  C3  LIG L   1       2.844   7.778  30.427  1.00  0.00     0.009 C 
ATOM      4  C4  LIG L   1       4.473   8.926  29.481  1.00  0.00     0.034 C 
ATOM      5  C5  LIG L   1       5.222   8.604  30.256  1.00  0.00     0.009 C 
ATOM      6  C6  LIG L   1       3.243   8.566  29.463  1.00  0.00     0.009 C 
ENDROOT
BRANCH    1    7
ATOM      7  C7  LIG L   1       2.893   6.588  32.197  1.00  0.00     0.069 C 
ATOM      8  C8  LIG L   1       3.214   6.461  33.480  1.00  0.00     0.048 C 
ATOM      9  C9  LIG L   1       2.597   5.479  33.994  1.00  0.00     0.058 C 
ATOM     10 C10  LIG L   1       4.276   7.157  34.148  1.00  0.00     0.028 C 
ATOM     11 C11  LIG L   1       1.927   5.099  32.995  1.00  0.00     0.070 C 
ATOM     12 C12  LIG L   1       2.584   4.957  35.105  1.00  0.00     0.086 C 
ATOM     13 C13  LIG L   1       4.886   6.291  35.186  1.00  0.00     0.104 C 
ATOM     14  N1  LIG L   1       2.139   5.723  31.935  1.00  0.00     0.232 N 
ATOM     15 C14  LIG L   1       1.199   4.298  33.237  1.00  0.00     0.091 C 
ATOM     16 C15  LIG L   1       3.312   5.295  36.023  1.00  0.00     0.217 C 
ATOM     17 C16  LIG L   1       1.822   4.105  35.252  1.00  0.00     0.050 C 
ATOM     18  N2  LIG L   1       4.298   5.904  35.975  1.00  0.00    -0.315 N 
ATOM     19  H1  LIG L   1       2.548   5.101  31.237  1.00  0.00     0.202 HD
ATOM     20  H2  LIG L   1       1.272   6.097  31.550  1.00  0.00     0.202 HD
ATOM     21 C17  LIG L   1       1.052   3.747  34.385  1.00  0.00     0.172 C 
ATOM     22  O1  LIG L   1       2.984   5.066  36.926  1.00  0.00    -0.276 OA
ATOM     23  H3  LIG L   1       4.668   6.108  36.865  1.00  0.00     0.149 HD
ATOM     24  F1  LIG L   1       0.105   2.875  34.594  1.00  0.00    -0.245 F 
ENDBRANCH    1    7
BRANCH    4   25
ATOM     25 C18  LIG L   1       4.956   9.754  28.384  1.00  0.00     0.132 C 
BRANCH   25   26
ATOM     26  N3  LIG L   1       4.930   9.144  27.290  1.00  0.00     0.225 N 
ATOM     27 C19  LIG L   1       6.151   9.028  26.649  1.00  0.00     0.188 C 
ATOM     28  H4  LIG L   1       4.292   9.641  26.667  1.00  0.00     0.201 HD
ATOM     29  H5  LIG L   1       4.631   8.192  27.504  1.00  0.00     0.201 HD
ENDBRANCH   25   26
ENDBRANCH    4   25
TORSDOF 3
ENDMDL
