examples/PiB/3_docked.pdbqt
 OpenBabel01122516333D

 24 27  0  0  0  0  0  0  0  0999 V2000
    3.4510    7.4000   31.1800 C   0  0  0  0  0  0  0  0  0  0  0  0
    4.6150    7.7970   31.0110 C   0  0  0  0  0  3  0  0  0  0  0  0
    2.8440    7.7780   30.4270 C   0  0  0  0  0  3  0  0  0  0  0  0
    4.4730    8.9260   29.4810 C   0  0  0  0  0  0  0  0  0  0  0  0
    5.2220    8.6040   30.2560 C   0  0  0  0  0  3  0  0  0  0  0  0
    3.2430    8.5660   29.4630 C   0  0  0  0  0  3  0  0  0  0  0  0
    2.8930    6.5880   32.1970 C   0  0  0  0  0  0  0  0  0  0  0  0
    3.2140    6.4610   33.4800 C   0  0  0  0  0  0  0  0  0  0  0  0
    2.5970    5.4790   33.9940 C   0  0  0  0  0  0  0  0  0  0  0  0
    4.2760    7.1570   34.1480 C   0  0  0  0  0  2  0  0  0  0  0  0
    1.9270    5.0990   32.9950 C   0  0  0  0  0  0  0  0  0  0  0  0
    2.5840    4.9570   35.1050 C   0  0  0  0  0  0  0  0  0  0  0  0
    4.8860    6.2910   35.1860 C   0  0  0  0  0  2  0  0  0  0  0  0
    2.1390    5.7230   31.9350 N   0  0  0  0  0  4  0  0  0  0  0  0
    1.1990    4.2980   33.2370 C   0  0  0  0  0  3  0  0  0  0  0  0
    3.3120    5.2950   36.0230 C   0  0  0  0  0  0  0  0  0  0  0  0
    1.8220    4.1050   35.2520 C   0  0  0  0  0  3  0  0  0  0  0  0
    4.2980    5.9040   35.9750 N   0  0  0  0  0  0  0  0  0  0  0  0
    1.0520    3.7470   34.3850 C   0  0  0  0  0  0  0  0  0  0  0  0
    2.9840    5.0660   36.9260 O   0  0  0  0  0  0  0  0  0  0  0  0
    0.1050    2.8750   34.5940 F   0  0  0  0  0  0  0  0  0  0  0  0
    4.9560    9.7540   28.3840 C   0  0  0  0  0  2  0  0  0  0  0  0
    4.9300    9.1440   27.2900 N   0  0  0  0  0  4  0  0  0  0  0  0
    6.1510    9.0280   26.6490 C   0  0  0  0  0  1  0  0  0  0  0  0
  1  7  1  0  0  0  0
  2  1  1  0  0  0  0
  3  1  2  0  0  0  0
  4  5  1  0  0  0  0
  5  2  2  0  0  0  0
  6  4  2  0  0  0  0
  6  3  1  0  0  0  0
  7  8  2  0  0  0  0
  8  9  1  0  0  0  0
  8 10  1  0  0  0  0
  9 12  1  0  0  0  0
 10 13  1  0  0  0  0
 11 15  1  0  0  0  0
 11  9  2  0  0  0  0
 12 17  2  0  0  0  0
 12 16  1  0  0  0  0
 13 18  1  0  0  0  0
 14  7  1  0  0  0  0
 14 11  1  0  0  0  0
 15 19  2  0  0  0  0
 16 20  2  0  0  0  0
 18 16  1  0  0  0  0
 19 21  1  0  0  0  0
 19 17  1  0  0  0  0
 22  4  1  0  0  0  0
 23 22  1  0  0  0  0
 24 23  1  0  0  0  0
M  END
>  <MODEL>
1

>  <REMARK>
 VINA RESULT:    -6.810      0.000      0.000
 INTER + INTRA:          -8.856
 INTER:                  -8.254
 INTRA:                  -0.602
 UNBOUND:                -0.851
 Flexibility Score: inf
 Active torsions [ 3 ] -> [ 3 ]

>  <TORSDO>
F 3

$$$$
