
     RDKit          3D

 24 27  0  0  0  0  0  0  0  0999 V2000
    1.6039    1.9100   31.9681 C   0  0  0  0  0  0  0  0  0  0  0  0
    2.4739    3.3474   30.8752 N   0  0  0  0  0  0  0  0  0  0  0  0
    0.1135   -1.1364   30.4299 O   0  0  0  0  0  0  0  0  0  0  0  0
    1.5411    1.4568   30.7931 C   0  0  0  0  0  0  0  0  0  0  0  0
    0.9017   -0.7513   32.0625 N   0  0  0  0  0  0  0  0  0  0  0  0
    1.2915    1.1301   33.0999 C   0  0  0  0  0  0  0  0  0  0  0  0
    3.2921    5.7017   37.2410 N   0  0  0  0  0  0  0  0  0  0  0  0
    2.1776    3.1094   31.9742 C   0  0  0  0  0  0  0  0  0  0  0  0
    2.0929    2.4130   30.1849 C   0  0  0  0  0  0  0  0  0  0  0  0
    1.1494    0.4381   30.3041 C   0  0  0  0  0  0  0  0  0  0  0  0
    1.4663   -0.2981   32.8040 C   0  0  0  0  0  0  0  0  0  0  0  0
    2.5769    3.9233   33.0371 C   0  0  0  0  0  0  0  0  0  0  0  0
    0.7472   -0.5061   30.9244 C   0  0  0  0  0  0  0  0  0  0  0  0
    2.0274    2.3270   29.0864 C   0  0  0  0  0  0  0  0  0  0  0  0
    1.1405    0.3885   29.1508 C   0  0  0  0  0  0  0  0  0  0  0  0
    1.5363    1.3344   28.4523 C   0  0  0  0  0  0  0  0  0  0  0  0
    3.7020    4.0933   33.5326 C   0  0  0  0  0  0  0  0  0  0  0  0
    1.9011    4.4976   33.5934 C   0  0  0  0  0  0  0  0  0  0  0  0
    3.3861    5.2666   35.0370 C   0  0  0  0  0  0  0  0  0  0  0  0
    4.2094    4.6804   34.5535 C   0  0  0  0  0  0  0  0  0  0  0  0
    2.1770    5.2665   34.6268 C   0  0  0  0  0  0  0  0  0  0  0  0
    3.7546    6.1098   36.1084 C   0  0  0  0  0  0  0  0  0  0  0  0
    4.2413    5.5447   38.2390 C   0  0  0  0  0  0  0  0  0  0  0  0
    1.4372    1.3256   27.1371 F   0  0  0  0  0  0  0  0  0  0  0  0
  1  4  1  0
  1  6  1  0
  1  8  1  0
  2  8  1  0
  2  9  1  0
  3 13  2  0
  4  9  1  0
  4 10  1  0
  5 11  1  0
  5 13  1  0
  6 11  1  0
  7 22  1  0
  7 23  1  0
  8 12  1  0
  9 14  1  0
 10 13  1  0
 10 15  1  0
 12 17  1  0
 12 18  1  0
 14 16  1  0
 15 16  1  0
 16 24  1  0
 17 20  1  0
 18 21  1  0
 19 20  1  0
 19 21  1  0
 19 22  1  0
M  END
$$$$
