examples/PiB/4_docked.pdbqt
 OpenBabel01122516333D

 24 27  0  0  0  0  0  0  0  0999 V2000
    1.4280    5.1950   30.3970 C   0  0  0  0  0  0  0  0  0  0  0  0
    0.8190    6.1410   29.8740 C   0  0  0  0  0  3  0  0  0  0  0  0
    2.0620    5.5970   31.1280 C   0  0  0  0  0  3  0  0  0  0  0  0
    1.5320    7.7090   30.7530 C   0  0  0  0  0  0  0  0  0  0  0  0
    0.8350    7.4220   29.9240 C   0  0  0  0  0  3  0  0  0  0  0  0
    2.1970    6.8680   31.4460 C   0  0  0  0  0  3  0  0  0  0  0  0
    1.3830    3.8280   30.1090 C   0  0  0  0  0  0  0  0  0  0  0  0
    1.5630    3.1780   28.9640 C   0  0  0  0  0  0  0  0  0  0  0  0
    1.2910    1.9540   29.1040 C   0  0  0  0  0  0  0  0  0  0  0  0
    1.8140    3.7600   27.7050 C   0  0  0  0  0  2  0  0  0  0  0  0
    0.9560    1.9670   30.3190 C   0  0  0  0  0  0  0  0  0  0  0  0
    1.2740    1.0070   28.3740 C   0  0  0  0  0  0  0  0  0  0  0  0
    1.1740    2.9760   26.6400 C   0  0  0  0  0  2  0  0  0  0  0  0
    0.9920    3.0520   30.8810 N   0  0  0  0  0  4  0  0  0  0  0  0
    0.8090    0.9570   30.7410 C   0  0  0  0  0  3  0  0  0  0  0  0
    1.4740    1.0520   27.1930 C   0  0  0  0  0  0  0  0  0  0  0  0
    1.0750   -0.0190   28.8640 C   0  0  0  0  0  3  0  0  0  0  0  0
    1.4450    1.9880   26.4830 N   0  0  0  0  0  0  0  0  0  0  0  0
    0.8690   -0.1340   30.0810 C   0  0  0  0  0  0  0  0  0  0  0  0
    1.7990    0.1890   26.7550 O   0  0  0  0  0  0  0  0  0  0  0  0
    0.7400   -1.3100   30.6650 F   0  0  0  0  0  0  0  0  0  0  0  0
    1.5950    9.0820   31.0800 C   0  0  0  0  0  2  0  0  0  0  0  0
    2.1970    9.2960   32.2010 N   0  0  0  0  0  4  0  0  0  0  0  0
    1.5840   10.2270   33.0250 C   0  0  0  0  0  1  0  0  0  0  0  0
  1  3  1  0  0  0  0
  2  5  1  0  0  0  0
  2  1  2  0  0  0  0
  3  6  2  0  0  0  0
  4 22  1  0  0  0  0
  4  6  1  0  0  0  0
  5  4  2  0  0  0  0
  7  1  1  0  0  0  0
  7 14  1  0  0  0  0
  8  9  1  0  0  0  0
  8  7  2  0  0  0  0
  9 11  1  0  0  0  0
 10  8  1  0  0  0  0
 11 15  2  0  0  0  0
 11 14  1  0  0  0  0
 12 17  1  0  0  0  0
 12  9  2  0  0  0  0
 13 10  1  0  0  0  0
 16 12  1  0  0  0  0
 17 19  2  0  0  0  0
 18 13  1  0  0  0  0
 18 16  1  0  0  0  0
 19 21  1  0  0  0  0
 19 15  1  0  0  0  0
 20 16  2  0  0  0  0
 22 23  1  0  0  0  0
 23 24  1  0  0  0  0
M  END
>  <MODEL>
1

>  <REMARK>
 VINA RESULT:    -7.768      0.000      0.000
 INTER + INTRA:          -9.838
 INTER:                  -9.128
 INTRA:                  -0.710
 UNBOUND:                -0.708
 Flexibility Score: inf
 Active torsions [ 3 ] -> [ 3 ]

>  <TORSDO>
F 3

$$$$
