MODEL 1
REMARK VINA RESULT:   -14.072      0.000      0.000
REMARK INTER + INTRA:         -16.993
REMARK INTER:                 -16.473
REMARK INTRA:                  -0.519
REMARK UNBOUND:                -0.453
REMARK Flexibility Score: inf
REMARK Active torsions [ 3 ] -> [ 3 ]
ROOT
ATOM      1  C1  LIG L   1       1.671   2.076  28.652  1.00  0.00     0.038 C 
ATOM      2  C2  LIG L   1       0.907   1.116  28.539  1.00  0.00     0.009 C 
ATOM      3  C3  LIG L   1       2.021   2.332  27.685  1.00  0.00     0.009 C 
ATOM      4  C4  LIG L   1       0.928   0.693  26.653  1.00  0.00     0.034 C 
ATOM      5  C5  LIG L   1       0.507   0.308  27.626  1.00  0.00     0.009 C 
ATOM      6  C6  LIG L   1       1.686   1.715  26.575  1.00  0.00     0.009 C 
ENDROOT
BRANCH    1    7
ATOM      7  C7  LIG L   1       2.110   2.776  29.786  1.00  0.00     0.069 C 
ATOM      8  C8  LIG L   1       2.189   2.406  31.051  1.00  0.00     0.048 C 
ATOM      9  C9  LIG L   1       2.466   3.373  31.786  1.00  0.00     0.058 C 
ATOM     10 C10  LIG L   1       1.805   1.133  31.575  1.00  0.00     0.028 C 
ATOM     11 C11  LIG L   1       2.530   4.281  30.903  1.00  0.00     0.070 C 
ATOM     12 C12  LIG L   1       2.624   3.528  32.965  1.00  0.00     0.086 C 
ATOM     13 C13  LIG L   1       1.248   1.297  32.925  1.00  0.00     0.104 C 
ATOM     14  N1  LIG L   1       2.297   3.912  29.760  1.00  0.00     0.232 N 
ATOM     15 C14  LIG L   1       2.909   5.256  31.281  1.00  0.00     0.091 C 
ATOM     16 C15  LIG L   1       2.433   2.687  33.798  1.00  0.00     0.217 C 
ATOM     17 C16  LIG L   1       2.993   4.575  33.300  1.00  0.00     0.050 C 
ATOM     18  N2  LIG L   1       1.840   1.689  33.685  1.00  0.00    -0.315 N 
ATOM     19  H1  LIG L   1       1.470   4.391  29.403  1.00  0.00     0.202 HD
ATOM     20  H2  LIG L   1       3.085   4.129  29.150  1.00  0.00     0.202 HD
ATOM     21 C17  LIG L   1       3.211   5.488  32.505  1.00  0.00     0.172 C 
ATOM     22  O1  LIG L   1       2.926   2.802  34.680  1.00  0.00    -0.276 OA
ATOM     23  H3  LIG L   1       1.915   1.098  34.468  1.00  0.00     0.149 HD
ATOM     24  F1  LIG L   1       3.734   6.654  32.881  1.00  0.00    -0.245 F 
ENDBRANCH    1    7
BRANCH    4   25
ATOM     25 C18  LIG L   1       0.502   0.040  25.488  1.00  0.00     0.132 C 
BRANCH   25   26
ATOM     26  N3  LIG L   1      -0.664   0.425  25.096  1.00  0.00     0.225 N 
ATOM     27 C19  LIG L   1      -1.352  -0.496  24.312  1.00  0.00     0.188 C 
ATOM     28  H4  LIG L   1      -0.549   1.281  24.553  1.00  0.00     0.201 HD
ATOM     29  H5  LIG L   1      -1.222   0.555  25.940  1.00  0.00     0.201 HD
ENDBRANCH   25   26
ENDBRANCH    4   25
TORSDOF 3
ENDMDL
