examples/PiB/5_docked.pdbqt
 OpenBabel01122516333D

 24 27  0  0  0  0  0  0  0  0999 V2000
    1.6710    2.0760   28.6520 C   0  0  0  0  0  0  0  0  0  0  0  0
    0.9070    1.1160   28.5390 C   0  0  0  0  0  3  0  0  0  0  0  0
    2.0210    2.3320   27.6850 C   0  0  0  0  0  3  0  0  0  0  0  0
    0.9280    0.6930   26.6530 C   0  0  0  0  0  0  0  0  0  0  0  0
    0.5070    0.3080   27.6260 C   0  0  0  0  0  3  0  0  0  0  0  0
    1.6860    1.7150   26.5750 C   0  0  0  0  0  3  0  0  0  0  0  0
    2.1100    2.7760   29.7860 C   0  0  0  0  0  0  0  0  0  0  0  0
    2.1890    2.4060   31.0510 C   0  0  0  0  0  0  0  0  0  0  0  0
    2.4660    3.3730   31.7860 C   0  0  0  0  0  0  0  0  0  0  0  0
    1.8050    1.1330   31.5750 C   0  0  0  0  0  2  0  0  0  0  0  0
    2.5300    4.2810   30.9030 C   0  0  0  0  0  0  0  0  0  0  0  0
    2.6240    3.5280   32.9650 C   0  0  0  0  0  0  0  0  0  0  0  0
    1.2480    1.2970   32.9250 C   0  0  0  0  0  2  0  0  0  0  0  0
    2.2970    3.9120   29.7600 N   0  0  0  0  0  4  0  0  0  0  0  0
    2.9090    5.2560   31.2810 C   0  0  0  0  0  3  0  0  0  0  0  0
    2.4330    2.6870   33.7980 C   0  0  0  0  0  0  0  0  0  0  0  0
    2.9930    4.5750   33.3000 C   0  0  0  0  0  3  0  0  0  0  0  0
    1.8400    1.6890   33.6850 N   0  0  0  0  0  0  0  0  0  0  0  0
    3.2110    5.4880   32.5050 C   0  0  0  0  0  0  0  0  0  0  0  0
    2.9260    2.8020   34.6800 O   0  0  0  0  0  0  0  0  0  0  0  0
    3.7340    6.6540   32.8810 F   0  0  0  0  0  0  0  0  0  0  0  0
    0.5020    0.0400   25.4880 C   0  0  0  0  0  2  0  0  0  0  0  0
   -0.6640    0.4250   25.0960 N   0  0  0  0  0  4  0  0  0  0  0  0
   -1.3520   -0.4960   24.3120 C   0  0  0  0  0  1  0  0  0  0  0  0
  1  7  1  0  0  0  0
  2  1  1  0  0  0  0
  3  1  2  0  0  0  0
  4  5  1  0  0  0  0
  5  2  2  0  0  0  0
  6  4  2  0  0  0  0
  6  3  1  0  0  0  0
  7  8  2  0  0  0  0
  8 10  1  0  0  0  0
  8  9  1  0  0  0  0
  9 12  1  0  0  0  0
 10 13  1  0  0  0  0
 11 15  1  0  0  0  0
 11  9  2  0  0  0  0
 12 17  2  0  0  0  0
 12 16  1  0  0  0  0
 13 18  1  0  0  0  0
 14  7  1  0  0  0  0
 14 11  1  0  0  0  0
 15 19  2  0  0  0  0
 16 20  2  0  0  0  0
 18 16  1  0  0  0  0
 19 21  1  0  0  0  0
 19 17  1  0  0  0  0
 22  4  1  0  0  0  0
 23 22  1  0  0  0  0
 24 23  1  0  0  0  0
M  END
>  <MODEL>
1

>  <REMARK>
 VINA RESULT:   -14.072      0.000      0.000
 INTER + INTRA:         -16.993
 INTER:                 -16.473
 INTRA:                  -0.519
 UNBOUND:                -0.453
 Flexibility Score: inf
 Active torsions [ 3 ] -> [ 3 ]

>  <TORSDO>
F 3

$$$$
