
     RDKit          3D

 24 27  0  0  0  0  0  0  0  0999 V2000
    1.6169    1.9355   31.9518 C   0  0  0  0  0  0  0  0  0  0  0  0
    2.4839    3.3711   30.8614 N   0  0  0  0  0  0  0  0  0  0  0  0
    0.1197   -1.1332   30.4340 O   0  0  0  0  0  0  0  0  0  0  0  0
    1.5472    1.4777   30.7782 C   0  0  0  0  0  0  0  0  0  0  0  0
    0.9029   -0.7411   32.0581 N   0  0  0  0  0  0  0  0  0  0  0  0
    1.3009    1.1482   33.1145 C   0  0  0  0  0  0  0  0  0  0  0  0
    3.2905    5.7132   37.2447 N   0  0  0  0  0  0  0  0  0  0  0  0
    2.1732    3.1282   31.9685 C   0  0  0  0  0  0  0  0  0  0  0  0
    2.0941    2.4397   30.1485 C   0  0  0  0  0  0  0  0  0  0  0  0
    1.1555    0.4469   30.2823 C   0  0  0  0  0  0  0  0  0  0  0  0
    1.4672   -0.2793   32.8272 C   0  0  0  0  0  0  0  0  0  0  0  0
    2.5921    3.9230   33.0393 C   0  0  0  0  0  0  0  0  0  0  0  0
    0.7382   -0.5050   30.9131 C   0  0  0  0  0  0  0  0  0  0  0  0
    2.0484    2.3397   29.0635 C   0  0  0  0  0  0  0  0  0  0  0  0
    1.1616    0.3978   29.1429 C   0  0  0  0  0  0  0  0  0  0  0  0
    1.5669    1.3412   28.4648 C   0  0  0  0  0  0  0  0  0  0  0  0
    3.7212    4.0884   33.5435 C   0  0  0  0  0  0  0  0  0  0  0  0
    1.9069    4.5076   33.5965 C   0  0  0  0  0  0  0  0  0  0  0  0
    3.3888    5.2748   35.0565 C   0  0  0  0  0  0  0  0  0  0  0  0
    4.2241    4.6681   34.5505 C   0  0  0  0  0  0  0  0  0  0  0  0
    2.1743    5.2804   34.6384 C   0  0  0  0  0  0  0  0  0  0  0  0
    3.7581    6.1179   36.1104 C   0  0  0  0  0  0  0  0  0  0  0  0
    4.2311    5.5628   38.2514 C   0  0  0  0  0  0  0  0  0  0  0  0
    1.4654    1.3344   27.1384 F   0  0  0  0  0  0  0  0  0  0  0  0
  1  4  1  0
  1  6  1  0
  1  8  1  0
  2  8  1  0
  2  9  1  0
  3 13  2  0
  4  9  1  0
  4 10  1  0
  5 11  1  0
  5 13  1  0
  6 11  1  0
  7 22  1  0
  7 23  1  0
  8 12  1  0
  9 14  1  0
 10 13  1  0
 10 15  1  0
 12 17  1  0
 12 18  1  0
 14 16  1  0
 15 16  1  0
 16 24  1  0
 17 20  1  0
 18 21  1  0
 19 20  1  0
 19 21  1  0
 19 22  1  0
M  END
$$$$
