examples/PiB/6_docked.pdbqt
 OpenBabel01122516333D

 24 27  0  0  0  0  0  0  0  0999 V2000
    3.3590    7.3750   31.1940 C   0  0  0  0  0  0  0  0  0  0  0  0
    4.5370    7.7000   30.9410 C   0  0  0  0  0  3  0  0  0  0  0  0
    2.7360    7.8780   30.5010 C   0  0  0  0  0  3  0  0  0  0  0  0
    4.3660    8.9680   29.4670 C   0  0  0  0  0  0  0  0  0  0  0  0
    5.1450    8.5030   30.1730 C   0  0  0  0  0  3  0  0  0  0  0  0
    3.1110    8.7020   29.5360 C   0  0  0  0  0  3  0  0  0  0  0  0
    2.8300    6.5460   32.1870 C   0  0  0  0  0  0  0  0  0  0  0  0
    3.1660    6.3970   33.4500 C   0  0  0  0  0  0  0  0  0  0  0  0
    2.5630    5.4200   33.9740 C   0  0  0  0  0  0  0  0  0  0  0  0
    4.2220    7.1100   34.1200 C   0  0  0  0  0  2  0  0  0  0  0  0
    1.8990    5.0230   32.9640 C   0  0  0  0  0  0  0  0  0  0  0  0
    2.5670    4.8950   35.0630 C   0  0  0  0  0  0  0  0  0  0  0  0
    4.8560    6.2570   35.1280 C   0  0  0  0  0  2  0  0  0  0  0  0
    2.0950    5.6650   31.9270 N   0  0  0  0  0  4  0  0  0  0  0  0
    1.1800    4.2330   33.1910 C   0  0  0  0  0  3  0  0  0  0  0  0
    3.2920    5.2230   35.9830 C   0  0  0  0  0  0  0  0  0  0  0  0
    1.8120    4.0570   35.2240 C   0  0  0  0  0  3  0  0  0  0  0  0
    4.2870    5.8560   35.9270 N   0  0  0  0  0  0  0  0  0  0  0  0
    1.0520    3.6990   34.3250 C   0  0  0  0  0  0  0  0  0  0  0  0
    2.9830    4.9970   36.9090 O   0  0  0  0  0  0  0  0  0  0  0  0
    0.0910    2.8050   34.5450 F   0  0  0  0  0  0  0  0  0  0  0  0
    4.8430    9.7780   28.4310 C   0  0  0  0  0  2  0  0  0  0  0  0
    4.7860    9.1850   27.2840 N   0  0  0  0  0  4  0  0  0  0  0  0
    5.9770    9.1550   26.5760 C   0  0  0  0  0  1  0  0  0  0  0  0
  1  7  1  0  0  0  0
  2  1  1  0  0  0  0
  3  1  2  0  0  0  0
  4  6  2  0  0  0  0
  4  5  1  0  0  0  0
  5  2  2  0  0  0  0
  6  3  1  0  0  0  0
  7  8  2  0  0  0  0
  8  9  1  0  0  0  0
  8 10  1  0  0  0  0
  9 12  1  0  0  0  0
 10 13  1  0  0  0  0
 11 15  1  0  0  0  0
 11  9  2  0  0  0  0
 12 17  2  0  0  0  0
 12 16  1  0  0  0  0
 13 18  1  0  0  0  0
 14  7  1  0  0  0  0
 14 11  1  0  0  0  0
 15 19  2  0  0  0  0
 16 20  2  0  0  0  0
 18 16  1  0  0  0  0
 19 21  1  0  0  0  0
 19 17  1  0  0  0  0
 22  4  1  0  0  0  0
 23 22  1  0  0  0  0
 24 23  1  0  0  0  0
M  END
>  <MODEL>
1

>  <REMARK>
 VINA RESULT:    -7.187      0.000      0.000
 INTER + INTRA:          -9.198
 INTER:                  -8.581
 INTRA:                  -0.618
 UNBOUND:                -0.751
 Flexibility Score: inf
 Active torsions [ 3 ] -> [ 3 ]

>  <TORSDO>
F 3

$$$$
