
     RDKit          3D

 24 27  0  0  0  0  0  0  0  0999 V2000
    1.6088    1.9331   31.9605 C   0  0  0  0  0  0  0  0  0  0  0  0
    2.4748    3.3613   30.8706 N   0  0  0  0  0  0  0  0  0  0  0  0
    0.1096   -1.1214   30.4260 O   0  0  0  0  0  0  0  0  0  0  0  0
    1.5463    1.4697   30.7845 C   0  0  0  0  0  0  0  0  0  0  0  0
    0.8930   -0.7548   32.0570 N   0  0  0  0  0  0  0  0  0  0  0  0
    1.2751    1.1466   33.1206 C   0  0  0  0  0  0  0  0  0  0  0  0
    3.2926    5.7049   37.2421 N   0  0  0  0  0  0  0  0  0  0  0  0
    2.1762    3.1286   31.9812 C   0  0  0  0  0  0  0  0  0  0  0  0
    2.0913    2.4329   30.1686 C   0  0  0  0  0  0  0  0  0  0  0  0
    1.1350    0.4399   30.2878 C   0  0  0  0  0  0  0  0  0  0  0  0
    1.4606   -0.3008   32.8329 C   0  0  0  0  0  0  0  0  0  0  0  0
    2.5793    3.9324   33.0447 C   0  0  0  0  0  0  0  0  0  0  0  0
    0.7267   -0.4987   30.9178 C   0  0  0  0  0  0  0  0  0  0  0  0
    2.0583    2.3249   29.0710 C   0  0  0  0  0  0  0  0  0  0  0  0
    1.1594    0.4013   29.1474 C   0  0  0  0  0  0  0  0  0  0  0  0
    1.5358    1.3342   28.4576 C   0  0  0  0  0  0  0  0  0  0  0  0
    3.7215    4.1002   33.5488 C   0  0  0  0  0  0  0  0  0  0  0  0
    1.8973    4.5089   33.6061 C   0  0  0  0  0  0  0  0  0  0  0  0
    3.3842    5.2683   35.0518 C   0  0  0  0  0  0  0  0  0  0  0  0
    4.2247    4.6721   34.5505 C   0  0  0  0  0  0  0  0  0  0  0  0
    2.1803    5.2711   34.6381 C   0  0  0  0  0  0  0  0  0  0  0  0
    3.7622    6.1099   36.1046 C   0  0  0  0  0  0  0  0  0  0  0  0
    4.2403    5.5424   38.2358 C   0  0  0  0  0  0  0  0  0  0  0  0
    1.4323    1.3117   27.1425 F   0  0  0  0  0  0  0  0  0  0  0  0
  1  4  1  0
  1  6  1  0
  1  8  1  0
  2  8  1  0
  2  9  1  0
  3 13  2  0
  4  9  1  0
  4 10  1  0
  5 11  1  0
  5 13  1  0
  6 11  1  0
  7 22  1  0
  7 23  1  0
  8 12  1  0
  9 14  1  0
 10 13  1  0
 10 15  1  0
 12 17  1  0
 12 18  1  0
 14 16  1  0
 15 16  1  0
 16 24  1  0
 17 20  1  0
 18 21  1  0
 19 20  1  0
 19 21  1  0
 19 22  1  0
M  END
$$$$
