MODEL 1
REMARK VINA RESULT:   -14.104      0.000      0.000
REMARK INTER + INTRA:         -17.021
REMARK INTER:                 -16.670
REMARK INTRA:                  -0.350
REMARK UNBOUND:                -0.443
REMARK Flexibility Score: inf
REMARK Active torsions [ 3 ] -> [ 3 ]
ROOT
ATOM      1  C1  LIG L   1       2.739   3.489  32.443  1.00  0.00     0.038 C 
ATOM      2  C2  LIG L   1       3.729   4.231  32.681  1.00  0.00     0.009 C 
ATOM      3  C3  LIG L   1       2.249   3.312  33.360  1.00  0.00     0.009 C 
ATOM      4  C4  LIG L   1       3.668   4.465  34.598  1.00  0.00     0.034 C 
ATOM      5  C5  LIG L   1       4.312   4.718  33.684  1.00  0.00     0.009 C 
ATOM      6  C6  LIG L   1       2.596   3.782  34.537  1.00  0.00     0.009 C 
ENDROOT
BRANCH    1    7
ATOM      7  C7  LIG L   1       2.310   2.919  31.247  1.00  0.00     0.069 C 
ATOM      8  C8  LIG L   1       1.733   1.755  30.997  1.00  0.00     0.048 C 
ATOM      9  C9  LIG L   1       1.644   1.539  29.753  1.00  0.00     0.058 C 
ATOM     10 C10  LIG L   1       1.414   0.752  31.981  1.00  0.00     0.028 C 
ATOM     11 C11  LIG L   1       2.186   2.605  29.334  1.00  0.00     0.070 C 
ATOM     12 C12  LIG L   1       1.216   0.633  29.067  1.00  0.00     0.086 C 
ATOM     13 C13  LIG L   1       1.583  -0.609  31.402  1.00  0.00     0.104 C 
ATOM     14  N1  LIG L   1       2.590   3.370  30.201  1.00  0.00     0.232 N 
ATOM     15 C14  LIG L   1       2.131   2.721  28.238  1.00  0.00     0.091 C 
ATOM     16 C15  LIG L   1       0.812  -0.413  29.502  1.00  0.00     0.217 C 
ATOM     17 C16  LIG L   1       1.218   0.825  27.941  1.00  0.00     0.050 C 
ATOM     18  N2  LIG L   1       0.997  -0.894  30.562  1.00  0.00    -0.315 N 
ATOM     19  H1  LIG L   1       3.602   3.471  30.128  1.00  0.00     0.202 HD
ATOM     20  H2  LIG L   1       2.162   4.289  30.088  1.00  0.00     0.202 HD
ATOM     21 C17  LIG L   1       1.590   1.877  27.447  1.00  0.00     0.172 C 
ATOM     22  O1  LIG L   1       0.181  -0.920  28.907  1.00  0.00    -0.276 OA
ATOM     23  H3  LIG L   1       0.507  -1.737  30.698  1.00  0.00     0.149 HD
ATOM     24  F1  LIG L   1       1.461   2.122  26.156  1.00  0.00    -0.245 F 
ENDBRANCH    1    7
BRANCH    4   25
ATOM     25 C18  LIG L   1       4.055   5.049  35.811  1.00  0.00     0.132 C 
BRANCH   25   26
ATOM     26  N3  LIG L   1       3.076   5.106  36.656  1.00  0.00     0.225 N 
ATOM     27 C19  LIG L   1       3.089   6.210  37.488  1.00  0.00     0.188 C 
ATOM     28  H4  LIG L   1       3.110   4.269  37.240  1.00  0.00     0.201 HD
ATOM     29  H5  LIG L   1       2.222   5.173  36.102  1.00  0.00     0.201 HD
ENDBRANCH   25   26
ENDBRANCH    4   25
TORSDOF 3
ENDMDL
