examples/PiB/7_docked.pdbqt
 OpenBabel01122516333D

 24 27  0  0  0  0  0  0  0  0999 V2000
    2.7390    3.4890   32.4430 C   0  0  0  0  0  0  0  0  0  0  0  0
    3.7290    4.2310   32.6810 C   0  0  0  0  0  3  0  0  0  0  0  0
    2.2490    3.3120   33.3600 C   0  0  0  0  0  3  0  0  0  0  0  0
    3.6680    4.4650   34.5980 C   0  0  0  0  0  0  0  0  0  0  0  0
    4.3120    4.7180   33.6840 C   0  0  0  0  0  3  0  0  0  0  0  0
    2.5960    3.7820   34.5370 C   0  0  0  0  0  3  0  0  0  0  0  0
    2.3100    2.9190   31.2470 C   0  0  0  0  0  0  0  0  0  0  0  0
    1.7330    1.7550   30.9970 C   0  0  0  0  0  0  0  0  0  0  0  0
    1.6440    1.5390   29.7530 C   0  0  0  0  0  0  0  0  0  0  0  0
    1.4140    0.7520   31.9810 C   0  0  0  0  0  2  0  0  0  0  0  0
    2.1860    2.6050   29.3340 C   0  0  0  0  0  0  0  0  0  0  0  0
    1.2160    0.6330   29.0670 C   0  0  0  0  0  0  0  0  0  0  0  0
    1.5830   -0.6090   31.4020 C   0  0  0  0  0  2  0  0  0  0  0  0
    2.5900    3.3700   30.2010 N   0  0  0  0  0  4  0  0  0  0  0  0
    2.1310    2.7210   28.2380 C   0  0  0  0  0  3  0  0  0  0  0  0
    0.8120   -0.4130   29.5020 C   0  0  0  0  0  0  0  0  0  0  0  0
    1.2180    0.8250   27.9410 C   0  0  0  0  0  3  0  0  0  0  0  0
    0.9970   -0.8940   30.5620 N   0  0  0  0  0  0  0  0  0  0  0  0
    1.5900    1.8770   27.4470 C   0  0  0  0  0  0  0  0  0  0  0  0
    0.1810   -0.9200   28.9070 O   0  0  0  0  0  0  0  0  0  0  0  0
    1.4610    2.1220   26.1560 F   0  0  0  0  0  0  0  0  0  0  0  0
    4.0550    5.0490   35.8110 C   0  0  0  0  0  2  0  0  0  0  0  0
    3.0760    5.1060   36.6560 N   0  0  0  0  0  4  0  0  0  0  0  0
    3.0890    6.2100   37.4880 C   0  0  0  0  0  1  0  0  0  0  0  0
  1  2  2  0  0  0  0
  1  3  1  0  0  0  0
  2  5  1  0  0  0  0
  3  6  2  0  0  0  0
  4 22  1  0  0  0  0
  5  4  2  0  0  0  0
  6  4  1  0  0  0  0
  7  1  1  0  0  0  0
  8  7  2  0  0  0  0
  8 10  1  0  0  0  0
  9  8  1  0  0  0  0
 11  9  1  0  0  0  0
 11 14  1  0  0  0  0
 12 16  1  0  0  0  0
 12  9  2  0  0  0  0
 13 10  1  0  0  0  0
 14  7  1  0  0  0  0
 15 11  2  0  0  0  0
 16 18  1  0  0  0  0
 17 12  1  0  0  0  0
 18 13  1  0  0  0  0
 19 17  2  0  0  0  0
 19 15  1  0  0  0  0
 20 16  2  0  0  0  0
 21 19  1  0  0  0  0
 22 23  1  0  0  0  0
 23 24  1  0  0  0  0
M  END
>  <MODEL>
1

>  <REMARK>
 VINA RESULT:   -14.104      0.000      0.000
 INTER + INTRA:         -17.021
 INTER:                 -16.670
 INTRA:                  -0.350
 UNBOUND:                -0.443
 Flexibility Score: inf
 Active torsions [ 3 ] -> [ 3 ]

>  <TORSDO>
F 3

$$$$
