MODEL 1
REMARK VINA RESULT:   -10.443      0.000      0.000
REMARK INTER + INTRA:         -12.809
REMARK INTER:                 -12.268
REMARK INTRA:                  -0.542
REMARK UNBOUND:                -0.535
REMARK Flexibility Score: inf
REMARK Active torsions [ 3 ] -> [ 3 ]
ROOT
ATOM      1  C1  LIG L   1       2.742   3.824  33.101  1.00  0.00     0.038 C 
ATOM      2  C2  LIG L   1       4.090   4.086  33.334  1.00  0.00     0.009 C 
ATOM      3  C3  LIG L   1       1.765   4.399  33.913  1.00  0.00     0.009 C 
ATOM      4  C4  LIG L   1       3.487   5.503  35.198  1.00  0.00     0.034 C 
ATOM      5  C5  LIG L   1       4.463   4.926  34.385  1.00  0.00     0.009 C 
ATOM      6  C6  LIG L   1       2.139   5.239  34.961  1.00  0.00     0.009 C 
ENDROOT
BRANCH    1    7
ATOM      7  C7  LIG L   1       2.356   2.953  32.014  1.00  0.00     0.069 C 
ATOM      8  C8  LIG L   1       1.827   1.680  32.027  1.00  0.00     0.048 C 
ATOM      9  C9  LIG L   1       1.626   1.284  30.668  1.00  0.00     0.058 C 
ATOM     10 C10  LIG L   1       1.551   0.842  33.222  1.00  0.00     0.028 C 
ATOM     11 C11  LIG L   1       2.082   2.338  29.869  1.00  0.00     0.070 C 
ATOM     12 C12  LIG L   1       1.110   0.130  30.040  1.00  0.00     0.086 C 
ATOM     13 C13  LIG L   1       1.850  -0.624  32.940  1.00  0.00     0.104 C 
ATOM     14  N1  LIG L   1       2.507   3.339  30.712  1.00  0.00     0.232 N 
ATOM     15 C14  LIG L   1       2.068   2.298  28.472  1.00  0.00     0.091 C 
ATOM     16 C15  LIG L   1       0.510  -1.006  30.785  1.00  0.00     0.217 C 
ATOM     17 C16  LIG L   1       1.091   0.084  28.630  1.00  0.00     0.050 C 
ATOM     18  N2  LIG L   1       0.833  -1.249  32.107  1.00  0.00    -0.315 N 
ATOM     19  H1  LIG L   1       3.491   3.538  30.531  1.00  0.00     0.202 HD
ATOM     20  H2  LIG L   1       1.948   4.175  30.545  1.00  0.00     0.202 HD
ATOM     21 C17  LIG L   1       1.566   1.145  27.866  1.00  0.00     0.172 C 
ATOM     22  O1  LIG L   1      -0.299  -1.725  30.193  1.00  0.00    -0.276 OA
ATOM     23  H3  LIG L   1       0.298  -1.946  32.550  1.00  0.00     0.149 HD
ATOM     24  F1  LIG L   1       1.535   1.065  26.529  1.00  0.00    -0.245 F 
ENDBRANCH    1    7
BRANCH    4   25
ATOM     25 C18  LIG L   1       3.886   6.401  36.319  1.00  0.00     0.132 C 
BRANCH   25   26
ATOM     26  N3  LIG L   1       3.382   5.946  37.590  1.00  0.00     0.225 N 
ATOM     27 C19  LIG L   1       4.438   5.913  38.603  1.00  0.00     0.188 C 
ATOM     28  H4  LIG L   1       2.645   6.579  37.900  1.00  0.00     0.201 HD
ATOM     29  H5  LIG L   1       3.021   4.999  37.472  1.00  0.00     0.201 HD
ENDBRANCH   25   26
ENDBRANCH    4   25
TORSDOF 3
ENDMDL
