examples/PiB/PiB_pocket_docked.pdbqt
 OpenBabel01122516333D

 24 27  0  0  0  0  0  0  0  0999 V2000
    2.7420    3.8240   33.1010 C   0  0  0  0  0  0  0  0  0  0  0  0
    4.0900    4.0860   33.3340 C   0  0  0  0  0  3  0  0  0  0  0  0
    1.7650    4.3990   33.9130 C   0  0  0  0  0  3  0  0  0  0  0  0
    3.4870    5.5030   35.1980 C   0  0  0  0  0  0  0  0  0  0  0  0
    4.4630    4.9260   34.3850 C   0  0  0  0  0  3  0  0  0  0  0  0
    2.1390    5.2390   34.9610 C   0  0  0  0  0  3  0  0  0  0  0  0
    2.3560    2.9530   32.0140 C   0  0  0  0  0  0  0  0  0  0  0  0
    1.8270    1.6800   32.0270 C   0  0  0  0  0  0  0  0  0  0  0  0
    1.6260    1.2840   30.6680 C   0  0  0  0  0  0  0  0  0  0  0  0
    1.5510    0.8420   33.2220 C   0  0  0  0  0  2  0  0  0  0  0  0
    2.0820    2.3380   29.8690 C   0  0  0  0  0  0  0  0  0  0  0  0
    1.1100    0.1300   30.0400 C   0  0  0  0  0  0  0  0  0  0  0  0
    1.8500   -0.6240   32.9400 C   0  0  0  0  0  2  0  0  0  0  0  0
    2.5070    3.3390   30.7120 N   0  0  0  0  0  4  0  0  0  0  0  0
    2.0680    2.2980   28.4720 C   0  0  0  0  0  3  0  0  0  0  0  0
    0.5100   -1.0060   30.7850 C   0  0  0  0  0  0  0  0  0  0  0  0
    1.0910    0.0840   28.6300 C   0  0  0  0  0  3  0  0  0  0  0  0
    0.8330   -1.2490   32.1070 N   0  0  0  0  0  0  0  0  0  0  0  0
    1.5660    1.1450   27.8660 C   0  0  0  0  0  0  0  0  0  0  0  0
   -0.2990   -1.7250   30.1930 O   0  0  0  0  0  0  0  0  0  0  0  0
    1.5350    1.0650   26.5290 F   0  0  0  0  0  0  0  0  0  0  0  0
    3.8860    6.4010   36.3190 C   0  0  0  0  0  2  0  0  0  0  0  0
    3.3820    5.9460   37.5900 N   0  0  0  0  0  4  0  0  0  0  0  0
    4.4380    5.9130   38.6030 C   0  0  0  0  0  1  0  0  0  0  0  0
  1  2  2  0  0  0  0
  1  3  1  0  0  0  0
  2  5  1  0  0  0  0
  3  6  2  0  0  0  0
  4 22  1  0  0  0  0
  5  4  2  0  0  0  0
  6  4  1  0  0  0  0
  7  8  2  0  0  0  0
  7  1  1  0  0  0  0
  8 10  1  0  0  0  0
  9  8  1  0  0  0  0
 11  9  2  0  0  0  0
 11 14  1  0  0  0  0
 12  9  1  0  0  0  0
 12 16  1  0  0  0  0
 13 10  1  0  0  0  0
 14  7  1  0  0  0  0
 15 11  1  0  0  0  0
 16 18  1  0  0  0  0
 17 12  2  0  0  0  0
 18 13  1  0  0  0  0
 19 15  2  0  0  0  0
 19 17  1  0  0  0  0
 20 16  2  0  0  0  0
 21 19  1  0  0  0  0
 22 23  1  0  0  0  0
 23 24  1  0  0  0  0
M  END
>  <MODEL>
1

>  <REMARK>
 VINA RESULT:   -10.443      0.000      0.000
 INTER + INTRA:         -12.809
 INTER:                 -12.268
 INTRA:                  -0.542
 UNBOUND:                -0.535
 Flexibility Score: inf
 Active torsions [ 3 ] -> [ 3 ]

>  <TORSDO>
F 3

$$$$
