MODEL 1
REMARK VINA RESULT:    -7.630      0.000      0.000
REMARK INTER + INTRA:          -9.991
REMARK INTER:                  -9.297
REMARK INTRA:                  -0.694
REMARK UNBOUND:                -0.131
REMARK Flexibility Score: inf
REMARK Active torsions [ 5 ] -> [ 5 ]
ROOT
ATOM      1  N1  LIG L   1       5.022  45.391  61.403  1.00  0.00    -0.227 N 
ATOM      2  O1  LIG L   1       4.811  43.710  59.901  1.00  0.00    -0.268 OA
ATOM      3  N2  LIG L   1       4.475  42.158  61.136  1.00  0.00    -0.266 N 
ATOM      4  N3  LIG L   1       4.603  45.780  62.439  1.00  0.00    -0.161 NA
ATOM      5  C1  LIG L   1       4.596  43.406  60.884  1.00  0.00     0.270 C 
ATOM      6  C2  LIG L   1       3.992  45.134  63.062  1.00  0.00     0.151 A 
ATOM      7  C3  LIG L   1       4.019  44.139  62.414  1.00  0.00     0.017 A 
ATOM      8  C4  LIG L   1       4.599  44.351  61.492  1.00  0.00     0.133 A 
ATOM      9  C5  LIG L   1       3.456  42.950  62.750  1.00  0.00     0.059 C 
ATOM     10  C6  LIG L   1       4.283  41.968  62.285  1.00  0.00     0.119 C 
ENDROOT
BRANCH    1   11
ATOM     11  C7  LIG L   1       5.698  46.088  60.649  1.00  0.00     0.066 A 
ATOM     12  C8  LIG L   1       6.944  47.753  59.207  1.00  0.00     0.120 A 
ATOM     13  C9  LIG L   1       7.669  46.937  59.876  1.00  0.00     0.048 A 
ATOM     14 C10  LIG L   1       5.863  47.729  59.212  1.00  0.00     0.048 A 
ATOM     15 C11  LIG L   1       6.990  46.207  60.600  1.00  0.00     0.031 A 
ATOM     16 C12  LIG L   1       5.314  46.811  59.983  1.00  0.00     0.031 A 
BRANCH   12   17
ATOM     17  O2  LIG L   1       7.569  48.517  58.695  1.00  0.00    -0.495 OA
ATOM     18 C13  LIG L   1       7.708  49.602  58.999  1.00  0.00     0.277 C 
ENDBRANCH   12   17
ENDBRANCH    1   11
BRANCH    6   19
ATOM     19 C14  LIG L   1       3.308  45.349  64.246  1.00  0.00     0.262 C 
ATOM     20  O3  LIG L   1       3.535  44.975  65.194  1.00  0.00    -0.269 OA
ATOM     21  N4  LIG L   1       2.450  45.936  64.054  1.00  0.00    -0.324 N 
ATOM     22  H1  LIG L   1       1.849  46.182  64.794  1.00  0.00     0.145 HD
ATOM     23  H2  LIG L   1       2.253  46.235  63.137  1.00  0.00     0.145 HD
ENDBRANCH    6   19
BRANCH    3   24
ATOM     24 C15  LIG L   1       4.621  40.987  60.421  1.00  0.00     0.037 A 
ATOM     25 C16  LIG L   1       5.754  40.216  60.653  1.00  0.00     0.025 A 
ATOM     26 C17  LIG L   1       3.808  40.670  59.262  1.00  0.00     0.025 A 
ATOM     27 C18  LIG L   1       6.086  39.156  59.691  1.00  0.00     0.025 A 
ATOM     28 C19  LIG L   1       4.163  39.632  58.301  1.00  0.00     0.025 A 
ATOM     29 C20  LIG L   1       5.294  38.944  58.546  1.00  0.00     0.036 A 
BRANCH   29   30
ATOM     30  N5  LIG L   1       5.632  38.100  57.749  1.00  0.00    -0.271 N 
ATOM     31 C21  LIG L   1       5.208  36.978  57.957  1.00  0.00     0.220 C 
ATOM     32 C22  LIG L   1       6.394  38.334  56.678  1.00  0.00     0.113 C 
ATOM     33  O4  LIG L   1       4.576  36.781  58.837  1.00  0.00    -0.275 OA
ATOM     34 C23  LIG L   1       5.554  35.876  57.126  1.00  0.00     0.096 C 
ATOM     35 C24  LIG L   1       6.931  37.268  56.071  1.00  0.00     0.020 C 
ATOM     36 C25  LIG L   1       5.958  36.306  55.921  1.00  0.00     0.011 C 
ENDBRANCH   29   30
ENDBRANCH    3   24
TORSDOF 5
ENDMDL
