examples/2p16/0_docked.pdbqt
 OpenBabel01072517173D

 34 38  0  0  0  0  0  0  0  0999 V2000
    5.0220   45.3910   61.4030 N   0  0  0  0  0  0  0  0  0  0  0  0
    4.8110   43.7100   59.9010 O   0  0  0  0  0  0  0  0  0  0  0  0
    4.4750   42.1580   61.1360 N   0  0  0  0  0  0  0  0  0  0  0  0
    4.6030   45.7800   62.4390 N   0  0  0  0  0  0  0  0  0  0  0  0
    4.5960   43.4060   60.8840 C   0  0  0  0  0  0  0  0  0  0  0  0
    3.9920   45.1340   63.0620 C   0  0  0  0  0  0  0  0  0  0  0  0
    4.0190   44.1390   62.4140 C   0  0  0  0  0  0  0  0  0  0  0  0
    4.5990   44.3510   61.4920 C   0  0  0  0  0  0  0  0  0  0  0  0
    3.4560   42.9500   62.7500 C   0  0  0  0  0  2  0  0  0  0  0  0
    4.2830   41.9680   62.2850 C   0  0  0  0  0  2  0  0  0  0  0  0
    5.6980   46.0880   60.6490 C   0  0  0  0  0  0  0  0  0  0  0  0
    6.9440   47.7530   59.2070 C   0  0  0  0  0  0  0  0  0  0  0  0
    7.6690   46.9370   59.8760 C   0  0  0  0  0  3  0  0  0  0  0  0
    5.8630   47.7290   59.2120 C   0  0  0  0  0  3  0  0  0  0  0  0
    6.9900   46.2070   60.6000 C   0  0  0  0  0  3  0  0  0  0  0  0
    5.3140   46.8110   59.9830 C   0  0  0  0  0  3  0  0  0  0  0  0
    7.5690   48.5170   58.6950 O   0  0  0  0  0  0  0  0  0  0  0  0
    7.7080   49.6020   58.9990 C   0  0  0  0  0  1  0  0  0  0  0  0
    3.3080   45.3490   64.2460 C   0  0  0  0  0  0  0  0  0  0  0  0
    3.5350   44.9750   65.1940 O   0  0  0  0  0  0  0  0  0  0  0  0
    2.4500   45.9360   64.0540 N   0  0  0  0  0  0  0  0  0  0  0  0
    4.6210   40.9870   60.4210 C   0  0  0  0  0  0  0  0  0  0  0  0
    5.7540   40.2160   60.6530 C   0  0  0  0  0  3  0  0  0  0  0  0
    3.8080   40.6700   59.2620 C   0  0  0  0  0  3  0  0  0  0  0  0
    6.0860   39.1560   59.6910 C   0  0  0  0  0  3  0  0  0  0  0  0
    4.1630   39.6320   58.3010 C   0  0  0  0  0  3  0  0  0  0  0  0
    5.2940   38.9440   58.5460 C   0  0  0  0  0  0  0  0  0  0  0  0
    5.6320   38.1000   57.7490 N   0  0  0  0  0  0  0  0  0  0  0  0
    5.2080   36.9780   57.9570 C   0  0  0  0  0  0  0  0  0  0  0  0
    6.3940   38.3340   56.6780 C   0  0  0  0  0  2  0  0  0  0  0  0
    4.5760   36.7810   58.8370 O   0  0  0  0  0  0  0  0  0  0  0  0
    5.5540   35.8760   57.1260 C   0  0  0  0  0  2  0  0  0  0  0  0
    6.9310   37.2680   56.0710 C   0  0  0  0  0  2  0  0  0  0  0  0
    5.9580   36.3060   55.9210 C   0  0  0  0  0  2  0  0  0  0  0  0
  1  8  1  0  0  0  0
  1  4  1  0  0  0  0
  2  5  2  0  0  0  0
  3 10  1  0  0  0  0
  4  6  2  0  0  0  0
  5  3  1  0  0  0  0
  5  8  1  0  0  0  0
  6 19  1  0  0  0  0
  7  9  1  0  0  0  0
  7  6  1  0  0  0  0
  8  7  2  0  0  0  0
 10  9  1  0  0  0  0
 11  1  1  0  0  0  0
 12 14  2  0  0  0  0
 12 13  1  0  0  0  0
 13 15  2  0  0  0  0
 14 16  1  0  0  0  0
 15 11  1  0  0  0  0
 16 11  2  0  0  0  0
 17 18  1  0  0  0  0
 17 12  1  0  0  0  0
 19 20  2  0  0  0  0
 21 19  1  0  0  0  0
 22 23  1  0  0  0  0
 22  3  1  0  0  0  0
 24 22  2  0  0  0  0
 25 23  2  0  0  0  0
 26 27  2  0  0  0  0
 26 24  1  0  0  0  0
 27 25  1  0  0  0  0
 28 29  1  0  0  0  0
 28 27  1  0  0  0  0
 29 31  2  0  0  0  0
 30 28  1  0  0  0  0
 32 29  1  0  0  0  0
 33 30  1  0  0  0  0
 34 33  1  0  0  0  0
 34 32  1  0  0  0  0
M  END
>  <MODEL>
1

>  <REMARK>
 VINA RESULT:    -7.630      0.000      0.000
 INTER + INTRA:          -9.991
 INTER:                  -9.297
 INTRA:                  -0.694
 UNBOUND:                -0.131
 Flexibility Score: inf
 Active torsions [ 5 ] -> [ 5 ]

>  <TORSDO>
F 5

$$$$
