
     RDKit          3D

 34 38  0  0  0  0  0  0  0  0999 V2000
   10.7095   45.3206   65.5042 C   0  0  0  0  0  0  0  0  0  0  0  0
    7.2066   45.3263   64.3049 N   0  0  0  0  0  0  0  0  0  0  0  0
    3.1851   46.3465   64.2281 O   0  0  0  0  0  0  0  0  0  0  0  0
   10.4170   46.2483   64.7354 C   0  0  0  0  0  0  0  0  0  0  0  0
    8.1558   39.8548   58.2949 N   0  0  0  0  0  0  0  0  0  0  0  0
    6.4243   39.7299   57.3271 O   0  0  0  0  0  0  0  0  0  0  0  0
    9.2890   46.1899   64.3353 C   0  0  0  0  0  0  0  0  0  0  0  0
    4.0448   46.5920   65.8042 N   0  0  0  0  0  0  0  0  0  0  0  0
    7.8361   44.4315   62.3873 O   0  0  0  0  0  0  0  0  0  0  0  0
    8.3629   45.4138   64.7254 C   0  0  0  0  0  0  0  0  0  0  0  0
   11.7947   45.2992   65.7462 O   0  0  0  0  0  0  0  0  0  0  0  0
    8.7909   44.7493   65.4298 C   0  0  0  0  0  0  0  0  0  0  0  0
    6.1463   43.4224   61.8571 N   0  0  0  0  0  0  0  0  0  0  0  0
    9.9913   44.6190   65.8844 C   0  0  0  0  0  0  0  0  0  0  0  0
    6.2504   45.8113   64.8409 N   0  0  0  0  0  0  0  0  0  0  0  0
    6.4292   42.5574   60.8145 C   0  0  0  0  0  0  0  0  0  0  0  0
    6.8302   44.2625   62.5679 C   0  0  0  0  0  0  0  0  0  0  0  0
    5.2439   45.7204   64.4406 C   0  0  0  0  0  0  0  0  0  0  0  0
    4.0335   46.2475   64.8159 C   0  0  0  0  0  0  0  0  0  0  0  0
    5.4964   45.0464   63.5040 C   0  0  0  0  0  0  0  0  0  0  0  0
    6.6178   44.8695   63.4871 C   0  0  0  0  0  0  0  0  0  0  0  0
    7.8240   41.9683   58.7439 C   0  0  0  0  0  0  0  0  0  0  0  0
   12.3638   44.5568   66.4060 C   0  0  0  0  0  0  0  0  0  0  0  0
    7.6144   40.6591   59.0246 C   0  0  0  0  0  0  0  0  0  0  0  0
    4.6216   44.5541   62.6234 C   0  0  0  0  0  0  0  0  0  0  0  0
    6.8083   40.2192   60.0792 C   0  0  0  0  0  0  0  0  0  0  0  0
    7.4613   39.4064   57.4306 C   0  0  0  0  0  0  0  0  0  0  0  0
    9.4299   39.4303   58.3953 C   0  0  0  0  0  0  0  0  0  0  0  0
    9.7769   38.3536   57.7624 C   0  0  0  0  0  0  0  0  0  0  0  0
    6.1982   41.1755   61.0122 C   0  0  0  0  0  0  0  0  0  0  0  0
    7.9423   38.4050   56.5536 C   0  0  0  0  0  0  0  0  0  0  0  0
    5.0493   43.3184   62.2327 C   0  0  0  0  0  0  0  0  0  0  0  0
    9.2857   38.4067   56.5022 C   0  0  0  0  0  0  0  0  0  0  0  0
    7.2105   42.9489   59.6620 C   0  0  0  0  0  0  0  0  0  0  0  0
  1  4  2  0
  1 11  1  0
  1 14  1  0
  2 10  1  0
  2 15  1  0
  2 21  1  0
  3 19  2  0
  4  7  1  0
  5 24  1  0
  5 27  1  0
  5 28  1  0
  6 27  2  0
  7 10  2  0
  8 19  1  0
  9 17  2  0
 10 12  1  0
 11 23  1  0
 12 14  2  0
 13 16  1  0
 13 17  1  0
 13 32  1  0
 15 18  2  0
 16 30  1  0
 16 34  2  0
 17 21  1  0
 18 19  1  0
 18 20  1  0
 20 21  2  0
 20 25  1  0
 22 24  2  0
 22 34  1  0
 24 26  1  0
 25 32  1  0
 26 30  2  0
 27 31  1  0
 28 29  1  0
 29 33  1  0
 31 33  1  0
M  END
$$$$
