examples/2p16/1_docked.pdbqt
 OpenBabel01072517173D

 34 38  0  0  0  0  0  0  0  0999 V2000
    5.4290   44.5090   60.9600 N   0  0  0  0  0  0  0  0  0  0  0  0
    5.4630   42.3040   61.0650 O   0  0  0  0  0  0  0  0  0  0  0  0
    5.7280   41.8260   59.1020 N   0  0  0  0  0  0  0  0  0  0  0  0
    5.9380   45.4250   60.3760 N   0  0  0  0  0  0  0  0  0  0  0  0
    5.6890   42.6380   60.1110 C   0  0  0  0  0  0  0  0  0  0  0  0
    6.5170   45.2930   59.4660 C   0  0  0  0  0  0  0  0  0  0  0  0
    6.3820   44.1250   59.3500 C   0  0  0  0  0  0  0  0  0  0  0  0
    5.7650   43.7510   60.2280 C   0  0  0  0  0  0  0  0  0  0  0  0
    6.8490   43.3680   58.3550 C   0  0  0  0  0  2  0  0  0  0  0  0
    5.9430   42.3790   58.1000 C   0  0  0  0  0  2  0  0  0  0  0  0
    4.7730   44.6200   61.9980 C   0  0  0  0  0  0  0  0  0  0  0  0
    3.6100   45.0660   64.1360 C   0  0  0  0  0  0  0  0  0  0  0  0
    2.8920   44.8820   63.1430 C   0  0  0  0  0  3  0  0  0  0  0  0
    4.6800   44.9770   64.1170 C   0  0  0  0  0  3  0  0  0  0  0  0
    3.5160   44.7490   62.1290 C   0  0  0  0  0  3  0  0  0  0  0  0
    5.1990   44.7340   62.9610 C   0  0  0  0  0  3  0  0  0  0  0  0
    3.0210   45.3390   65.0390 O   0  0  0  0  0  0  0  0  0  0  0  0
    2.8240   46.3780   65.4760 C   0  0  0  0  0  1  0  0  0  0  0  0
    7.2500   46.1520   58.6880 C   0  0  0  0  0  0  0  0  0  0  0  0
    8.2780   46.2930   58.7080 O   0  0  0  0  0  0  0  0  0  0  0  0
    6.6450   46.7140   58.0450 N   0  0  0  0  0  0  0  0  0  0  0  0
    5.4920   40.4750   58.9160 C   0  0  0  0  0  0  0  0  0  0  0  0
    6.4820   39.5590   59.3460 C   0  0  0  0  0  3  0  0  0  0  0  0
    4.4420   39.9740   58.0570 C   0  0  0  0  0  3  0  0  0  0  0  0
    6.4240   38.1770   58.8530 C   0  0  0  0  0  3  0  0  0  0  0  0
    4.4120   38.5820   57.5640 C   0  0  0  0  0  3  0  0  0  0  0  0
    5.4230   37.7740   57.9650 C   0  0  0  0  0  0  0  0  0  0  0  0
    5.4190   36.6430   57.5230 N   0  0  0  0  0  0  0  0  0  0  0  0
    4.8830   35.8290   58.2160 C   0  0  0  0  0  0  0  0  0  0  0  0
    5.9730   36.2470   56.3610 C   0  0  0  0  0  2  0  0  0  0  0  0
    4.4270   36.1210   59.1640 O   0  0  0  0  0  0  0  0  0  0  0  0
    4.8690   34.4600   57.8590 C   0  0  0  0  0  2  0  0  0  0  0  0
    6.1730   34.9820   56.1680 C   0  0  0  0  0  2  0  0  0  0  0  0
    5.0640   34.3000   56.5370 C   0  0  0  0  0  2  0  0  0  0  0  0
  1 11  1  0  0  0  0
  3  5  1  0  0  0  0
  4  1  1  0  0  0  0
  5  8  1  0  0  0  0
  5  2  2  0  0  0  0
  6  4  2  0  0  0  0
  7  6  1  0  0  0  0
  7  8  2  0  0  0  0
  8  1  1  0  0  0  0
  9  7  1  0  0  0  0
 10  9  1  0  0  0  0
 10  3  1  0  0  0  0
 11 15  2  0  0  0  0
 11 16  1  0  0  0  0
 12 17  1  0  0  0  0
 13 12  2  0  0  0  0
 14 12  1  0  0  0  0
 15 13  1  0  0  0  0
 16 14  2  0  0  0  0
 17 18  1  0  0  0  0
 19 20  2  0  0  0  0
 19  6  1  0  0  0  0
 21 19  1  0  0  0  0
 22  3  1  0  0  0  0
 22 23  1  0  0  0  0
 24 22  2  0  0  0  0
 25 23  2  0  0  0  0
 26 27  2  0  0  0  0
 26 24  1  0  0  0  0
 27 25  1  0  0  0  0
 28 27  1  0  0  0  0
 28 29  1  0  0  0  0
 29 31  2  0  0  0  0
 30 28  1  0  0  0  0
 32 29  1  0  0  0  0
 33 30  1  0  0  0  0
 33 34  1  0  0  0  0
 34 32  1  0  0  0  0
M  END
>  <MODEL>
1

>  <REMARK>
 VINA RESULT:    -7.614      0.000      0.000
 INTER + INTRA:         -10.142
 INTER:                  -9.478
 INTRA:                  -0.663
 UNBOUND:                -0.302
 Flexibility Score: inf
 Active torsions [ 5 ] -> [ 5 ]

>  <TORSDO>
F 5

$$$$
