MODEL 1
REMARK VINA RESULT:    -7.614      0.000      0.000
REMARK INTER + INTRA:         -10.142
REMARK INTER:                  -9.478
REMARK INTRA:                  -0.663
REMARK UNBOUND:                -0.302
REMARK Flexibility Score: inf
REMARK Active torsions [ 5 ] -> [ 5 ]
ROOT
ATOM      1  N1  LIG L   1       5.429  44.509  60.960  1.00  0.00    -0.227 N 
ATOM      2  O1  LIG L   1       5.463  42.304  61.065  1.00  0.00    -0.268 OA
ATOM      3  N2  LIG L   1       5.728  41.826  59.102  1.00  0.00    -0.266 N 
ATOM      4  N3  LIG L   1       5.938  45.425  60.376  1.00  0.00    -0.161 NA
ATOM      5  C1  LIG L   1       5.689  42.638  60.111  1.00  0.00     0.270 C 
ATOM      6  C2  LIG L   1       6.517  45.293  59.466  1.00  0.00     0.151 A 
ATOM      7  C3  LIG L   1       6.382  44.125  59.350  1.00  0.00     0.017 A 
ATOM      8  C4  LIG L   1       5.765  43.751  60.228  1.00  0.00     0.133 A 
ATOM      9  C5  LIG L   1       6.849  43.368  58.355  1.00  0.00     0.059 C 
ATOM     10  C6  LIG L   1       5.943  42.379  58.100  1.00  0.00     0.119 C 
ENDROOT
BRANCH    1   11
ATOM     11  C7  LIG L   1       4.773  44.620  61.998  1.00  0.00     0.066 A 
ATOM     12  C8  LIG L   1       3.610  45.066  64.136  1.00  0.00     0.120 A 
ATOM     13  C9  LIG L   1       2.892  44.882  63.143  1.00  0.00     0.048 A 
ATOM     14 C10  LIG L   1       4.680  44.977  64.117  1.00  0.00     0.048 A 
ATOM     15 C11  LIG L   1       3.516  44.749  62.129  1.00  0.00     0.031 A 
ATOM     16 C12  LIG L   1       5.199  44.734  62.961  1.00  0.00     0.031 A 
BRANCH   12   17
ATOM     17  O2  LIG L   1       3.021  45.339  65.039  1.00  0.00    -0.495 OA
ATOM     18 C13  LIG L   1       2.824  46.378  65.476  1.00  0.00     0.277 C 
ENDBRANCH   12   17
ENDBRANCH    1   11
BRANCH    6   19
ATOM     19 C14  LIG L   1       7.250  46.152  58.688  1.00  0.00     0.262 C 
ATOM     20  O3  LIG L   1       8.278  46.293  58.708  1.00  0.00    -0.269 OA
ATOM     21  N4  LIG L   1       6.645  46.714  58.045  1.00  0.00    -0.324 N 
ATOM     22  H1  LIG L   1       7.051  47.369  57.432  1.00  0.00     0.145 HD
ATOM     23  H2  LIG L   1       5.668  46.588  58.054  1.00  0.00     0.145 HD
ENDBRANCH    6   19
BRANCH    3   24
ATOM     24 C15  LIG L   1       5.492  40.475  58.916  1.00  0.00     0.037 A 
ATOM     25 C16  LIG L   1       6.482  39.559  59.346  1.00  0.00     0.025 A 
ATOM     26 C17  LIG L   1       4.442  39.974  58.057  1.00  0.00     0.025 A 
ATOM     27 C18  LIG L   1       6.424  38.177  58.853  1.00  0.00     0.025 A 
ATOM     28 C19  LIG L   1       4.412  38.582  57.564  1.00  0.00     0.025 A 
ATOM     29 C20  LIG L   1       5.423  37.774  57.965  1.00  0.00     0.036 A 
BRANCH   29   30
ATOM     30  N5  LIG L   1       5.419  36.643  57.523  1.00  0.00    -0.271 N 
ATOM     31 C21  LIG L   1       4.883  35.829  58.216  1.00  0.00     0.220 C 
ATOM     32 C22  LIG L   1       5.973  36.247  56.361  1.00  0.00     0.113 C 
ATOM     33  O4  LIG L   1       4.427  36.121  59.164  1.00  0.00    -0.275 OA
ATOM     34 C23  LIG L   1       4.869  34.460  57.859  1.00  0.00     0.096 C 
ATOM     35 C24  LIG L   1       6.173  34.982  56.168  1.00  0.00     0.020 C 
ATOM     36 C25  LIG L   1       5.064  34.300  56.537  1.00  0.00     0.011 C 
ENDBRANCH   29   30
ENDBRANCH    3   24
TORSDOF 5
ENDMDL
