
     RDKit          3D

 34 38  0  0  0  0  0  0  0  0999 V2000
   10.7342   45.3149   65.5150 C   0  0  0  0  0  0  0  0  0  0  0  0
    7.1792   45.3208   64.3068 N   0  0  0  0  0  0  0  0  0  0  0  0
    3.1774   46.3526   64.2270 O   0  0  0  0  0  0  0  0  0  0  0  0
   10.4430   46.2504   64.7296 C   0  0  0  0  0  0  0  0  0  0  0  0
    8.1496   39.8414   58.3129 N   0  0  0  0  0  0  0  0  0  0  0  0
    6.4287   39.7285   57.3229 O   0  0  0  0  0  0  0  0  0  0  0  0
    9.2943   46.1891   64.3236 C   0  0  0  0  0  0  0  0  0  0  0  0
    4.0451   46.5605   65.8048 N   0  0  0  0  0  0  0  0  0  0  0  0
    7.8625   44.3908   62.4036 O   0  0  0  0  0  0  0  0  0  0  0  0
    8.3575   45.3909   64.7165 C   0  0  0  0  0  0  0  0  0  0  0  0
   11.8038   45.2954   65.7427 O   0  0  0  0  0  0  0  0  0  0  0  0
    8.8030   44.7247   65.4116 C   0  0  0  0  0  0  0  0  0  0  0  0
    6.1571   43.4267   61.8794 N   0  0  0  0  0  0  0  0  0  0  0  0
   10.0049   44.5867   65.8751 C   0  0  0  0  0  0  0  0  0  0  0  0
    6.2546   45.7833   64.8282 N   0  0  0  0  0  0  0  0  0  0  0  0
    6.4311   42.5571   60.8259 C   0  0  0  0  0  0  0  0  0  0  0  0
    6.8295   44.2368   62.5894 C   0  0  0  0  0  0  0  0  0  0  0  0
    5.2314   45.7157   64.4248 C   0  0  0  0  0  0  0  0  0  0  0  0
    4.0384   46.2392   64.8245 C   0  0  0  0  0  0  0  0  0  0  0  0
    5.4962   45.0461   63.5069 C   0  0  0  0  0  0  0  0  0  0  0  0
    6.6068   44.8589   63.4857 C   0  0  0  0  0  0  0  0  0  0  0  0
    7.8208   41.9868   58.7525 C   0  0  0  0  0  0  0  0  0  0  0  0
   12.3569   44.5363   66.3956 C   0  0  0  0  0  0  0  0  0  0  0  0
    7.6071   40.6698   59.0148 C   0  0  0  0  0  0  0  0  0  0  0  0
    4.6215   44.5476   62.6329 C   0  0  0  0  0  0  0  0  0  0  0  0
    6.8028   40.2310   60.0625 C   0  0  0  0  0  0  0  0  0  0  0  0
    7.4636   39.3978   57.4189 C   0  0  0  0  0  0  0  0  0  0  0  0
    9.4348   39.4257   58.3912 C   0  0  0  0  0  0  0  0  0  0  0  0
    9.7789   38.3371   57.7695 C   0  0  0  0  0  0  0  0  0  0  0  0
    6.1879   41.1900   61.0379 C   0  0  0  0  0  0  0  0  0  0  0  0
    7.9387   38.4030   56.5320 C   0  0  0  0  0  0  0  0  0  0  0  0
    5.0377   43.3165   62.2342 C   0  0  0  0  0  0  0  0  0  0  0  0
    9.2667   38.4071   56.5076 C   0  0  0  0  0  0  0  0  0  0  0  0
    7.2075   42.9484   59.6533 C   0  0  0  0  0  0  0  0  0  0  0  0
  1  4  2  0
  1 11  1  0
  1 14  1  0
  2 10  1  0
  2 15  1  0
  2 21  1  0
  3 19  2  0
  4  7  1  0
  5 24  1  0
  5 27  1  0
  5 28  1  0
  6 27  2  0
  7 10  2  0
  8 19  1  0
  9 17  2  0
 10 12  1  0
 11 23  1  0
 12 14  2  0
 13 16  1  0
 13 17  1  0
 13 32  1  0
 15 18  2  0
 16 30  1  0
 16 34  2  0
 17 21  1  0
 18 19  1  0
 18 20  1  0
 20 21  2  0
 20 25  1  0
 22 24  2  0
 22 34  1  0
 24 26  1  0
 25 32  1  0
 26 30  2  0
 27 31  1  0
 28 29  1  0
 29 33  1  0
 31 33  1  0
M  END
$$$$
