examples/2p16/2_docked.pdbqt
 OpenBabel01072517173D

 34 38  0  0  0  0  0  0  0  0999 V2000
    4.6090   45.2500   61.5340 N   0  0  0  0  0  0  0  0  0  0  0  0
    4.5120   43.7210   59.9190 O   0  0  0  0  0  0  0  0  0  0  0  0
    4.4820   42.0430   61.0590 N   0  0  0  0  0  0  0  0  0  0  0  0
    4.2540   45.4770   62.6110 N   0  0  0  0  0  0  0  0  0  0  0  0
    4.4280   43.3010   60.8890 C   0  0  0  0  0  0  0  0  0  0  0  0
    3.7860   44.7270   63.2700 C   0  0  0  0  0  0  0  0  0  0  0  0
    3.8940   43.8250   62.5380 C   0  0  0  0  0  0  0  0  0  0  0  0
    4.3580   44.1770   61.5730 C   0  0  0  0  0  0  0  0  0  0  0  0
    3.5540   42.5650   62.8050 C   0  0  0  0  0  2  0  0  0  0  0  0
    4.4300   41.7240   62.1930 C   0  0  0  0  0  2  0  0  0  0  0  0
    5.1240   46.0730   60.7460 C   0  0  0  0  0  0  0  0  0  0  0  0
    6.3130   47.5760   59.1290 C   0  0  0  0  0  0  0  0  0  0  0  0
    5.0610   47.5520   59.0450 C   0  0  0  0  0  3  0  0  0  0  0  0
    6.8730   47.0150   59.8790 C   0  0  0  0  0  3  0  0  0  0  0  0
    4.5490   46.7500   59.8090 C   0  0  0  0  0  3  0  0  0  0  0  0
    6.1610   46.2820   60.6740 C   0  0  0  0  0  3  0  0  0  0  0  0
    6.7610   48.1800   58.3340 O   0  0  0  0  0  0  0  0  0  0  0  0
    6.7730   47.9470   57.2140 C   0  0  0  0  0  1  0  0  0  0  0  0
    3.2380   44.7960   64.5160 C   0  0  0  0  0  0  0  0  0  0  0  0
    2.4670   44.1830   64.8910 O   0  0  0  0  0  0  0  0  0  0  0  0
    3.6360   45.5540   65.0920 N   0  0  0  0  0  0  0  0  0  0  0  0
    4.6770   40.9330   60.2400 C   0  0  0  0  0  0  0  0  0  0  0  0
    5.6670   40.0140   60.6240 C   0  0  0  0  0  3  0  0  0  0  0  0
    4.1220   40.8300   58.8940 C   0  0  0  0  0  3  0  0  0  0  0  0
    6.1200   39.0300   59.5860 C   0  0  0  0  0  3  0  0  0  0  0  0
    4.6150   39.8890   57.9030 C   0  0  0  0  0  3  0  0  0  0  0  0
    5.6100   39.0470   58.2920 C   0  0  0  0  0  0  0  0  0  0  0  0
    6.0810   38.2840   57.4720 N   0  0  0  0  0  0  0  0  0  0  0  0
    5.6680   37.1480   57.5330 C   0  0  0  0  0  0  0  0  0  0  0  0
    6.9480   38.5920   56.4810 C   0  0  0  0  0  2  0  0  0  0  0  0
    4.9540   36.8770   58.3120 O   0  0  0  0  0  0  0  0  0  0  0  0
    6.1390   36.1320   56.6680 C   0  0  0  0  0  2  0  0  0  0  0  0
    7.5770   37.6260   55.8790 C   0  0  0  0  0  2  0  0  0  0  0  0
    6.6560   36.6700   55.5690 C   0  0  0  0  0  2  0  0  0  0  0  0
  1  8  1  0  0  0  0
  1  4  1  0  0  0  0
  2  5  2  0  0  0  0
  3 10  1  0  0  0  0
  4  6  2  0  0  0  0
  5  3  1  0  0  0  0
  5  8  1  0  0  0  0
  6 19  1  0  0  0  0
  7  9  1  0  0  0  0
  7  6  1  0  0  0  0
  8  7  2  0  0  0  0
 10  9  1  0  0  0  0
 11  1  1  0  0  0  0
 12 14  1  0  0  0  0
 13 12  2  0  0  0  0
 13 15  1  0  0  0  0
 14 16  2  0  0  0  0
 15 11  2  0  0  0  0
 16 11  1  0  0  0  0
 17 12  1  0  0  0  0
 18 17  1  0  0  0  0
 19 20  2  0  0  0  0
 19 21  1  0  0  0  0
 22 23  1  0  0  0  0
 22  3  1  0  0  0  0
 24 22  2  0  0  0  0
 25 23  2  0  0  0  0
 26 27  2  0  0  0  0
 26 24  1  0  0  0  0
 27 25  1  0  0  0  0
 28 29  1  0  0  0  0
 28 27  1  0  0  0  0
 29 31  2  0  0  0  0
 30 28  1  0  0  0  0
 32 29  1  0  0  0  0
 33 30  1  0  0  0  0
 34 33  1  0  0  0  0
 34 32  1  0  0  0  0
M  END
>  <MODEL>
1

>  <REMARK>
 VINA RESULT:    -7.085      0.000      0.000
 INTER + INTRA:          -9.706
 INTER:                  -9.800
 INTRA:                   0.094
 UNBOUND:                -0.550
 Flexibility Score: inf
 Active torsions [ 5 ] -> [ 5 ]

>  <TORSDO>
F 5

$$$$
