MODEL 1
REMARK VINA RESULT:    -7.085      0.000      0.000
REMARK INTER + INTRA:          -9.706
REMARK INTER:                  -9.800
REMARK INTRA:                   0.094
REMARK UNBOUND:                -0.550
REMARK Flexibility Score: inf
REMARK Active torsions [ 5 ] -> [ 5 ]
ROOT
ATOM      1  N1  LIG L   1       4.609  45.250  61.534  1.00  0.00    -0.227 N 
ATOM      2  O1  LIG L   1       4.512  43.721  59.919  1.00  0.00    -0.268 OA
ATOM      3  N2  LIG L   1       4.482  42.043  61.059  1.00  0.00    -0.266 N 
ATOM      4  N3  LIG L   1       4.254  45.477  62.611  1.00  0.00    -0.161 NA
ATOM      5  C1  LIG L   1       4.428  43.301  60.889  1.00  0.00     0.270 C 
ATOM      6  C2  LIG L   1       3.786  44.727  63.270  1.00  0.00     0.151 A 
ATOM      7  C3  LIG L   1       3.894  43.825  62.538  1.00  0.00     0.017 A 
ATOM      8  C4  LIG L   1       4.358  44.177  61.573  1.00  0.00     0.133 A 
ATOM      9  C5  LIG L   1       3.554  42.565  62.805  1.00  0.00     0.059 C 
ATOM     10  C6  LIG L   1       4.430  41.724  62.193  1.00  0.00     0.119 C 
ENDROOT
BRANCH    1   11
ATOM     11  C7  LIG L   1       5.124  46.073  60.746  1.00  0.00     0.066 A 
ATOM     12  C8  LIG L   1       6.313  47.576  59.129  1.00  0.00     0.120 A 
ATOM     13  C9  LIG L   1       5.061  47.552  59.045  1.00  0.00     0.048 A 
ATOM     14 C10  LIG L   1       6.873  47.015  59.879  1.00  0.00     0.048 A 
ATOM     15 C11  LIG L   1       4.549  46.750  59.809  1.00  0.00     0.031 A 
ATOM     16 C12  LIG L   1       6.161  46.282  60.674  1.00  0.00     0.031 A 
BRANCH   12   17
ATOM     17  O2  LIG L   1       6.761  48.180  58.334  1.00  0.00    -0.495 OA
ATOM     18 C13  LIG L   1       6.773  47.947  57.214  1.00  0.00     0.277 C 
ENDBRANCH   12   17
ENDBRANCH    1   11
BRANCH    6   19
ATOM     19 C14  LIG L   1       3.238  44.796  64.516  1.00  0.00     0.262 C 
ATOM     20  O3  LIG L   1       2.467  44.183  64.891  1.00  0.00    -0.269 OA
ATOM     21  N4  LIG L   1       3.636  45.554  65.092  1.00  0.00    -0.324 N 
ATOM     22  H1  LIG L   1       3.313  45.695  66.011  1.00  0.00     0.145 HD
ATOM     23  H2  LIG L   1       4.340  46.135  64.723  1.00  0.00     0.145 HD
ENDBRANCH    6   19
BRANCH    3   24
ATOM     24 C15  LIG L   1       4.677  40.933  60.240  1.00  0.00     0.037 A 
ATOM     25 C16  LIG L   1       5.667  40.014  60.624  1.00  0.00     0.025 A 
ATOM     26 C17  LIG L   1       4.122  40.830  58.894  1.00  0.00     0.025 A 
ATOM     27 C18  LIG L   1       6.120  39.030  59.586  1.00  0.00     0.025 A 
ATOM     28 C19  LIG L   1       4.615  39.889  57.903  1.00  0.00     0.025 A 
ATOM     29 C20  LIG L   1       5.610  39.047  58.292  1.00  0.00     0.036 A 
BRANCH   29   30
ATOM     30  N5  LIG L   1       6.081  38.284  57.472  1.00  0.00    -0.271 N 
ATOM     31 C21  LIG L   1       5.668  37.148  57.533  1.00  0.00     0.220 C 
ATOM     32 C22  LIG L   1       6.948  38.592  56.481  1.00  0.00     0.113 C 
ATOM     33  O4  LIG L   1       4.954  36.877  58.312  1.00  0.00    -0.275 OA
ATOM     34 C23  LIG L   1       6.139  36.132  56.668  1.00  0.00     0.096 C 
ATOM     35 C24  LIG L   1       7.577  37.626  55.879  1.00  0.00     0.020 C 
ATOM     36 C25  LIG L   1       6.656  36.670  55.569  1.00  0.00     0.011 C 
ENDBRANCH   29   30
ENDBRANCH    3   24
TORSDOF 5
ENDMDL
