
     RDKit          3D

 34 38  0  0  0  0  0  0  0  0999 V2000
   10.7382   45.3382   65.5476 C   0  0  0  0  0  0  0  0  0  0  0  0
    7.2016   45.3254   64.3183 N   0  0  0  0  0  0  0  0  0  0  0  0
    3.1887   46.3589   64.2172 O   0  0  0  0  0  0  0  0  0  0  0  0
   10.4436   46.2741   64.7458 C   0  0  0  0  0  0  0  0  0  0  0  0
    8.1617   39.8600   58.3041 N   0  0  0  0  0  0  0  0  0  0  0  0
    6.4196   39.7363   57.3349 O   0  0  0  0  0  0  0  0  0  0  0  0
    9.3003   46.1997   64.3302 C   0  0  0  0  0  0  0  0  0  0  0  0
    4.0574   46.5784   65.7966 N   0  0  0  0  0  0  0  0  0  0  0  0
    7.8511   44.4250   62.3832 O   0  0  0  0  0  0  0  0  0  0  0  0
    8.3596   45.3984   64.7357 C   0  0  0  0  0  0  0  0  0  0  0  0
   11.8060   45.3169   65.7721 O   0  0  0  0  0  0  0  0  0  0  0  0
    8.7792   44.7473   65.4536 C   0  0  0  0  0  0  0  0  0  0  0  0
    6.1560   43.4420   61.8550 N   0  0  0  0  0  0  0  0  0  0  0  0
   10.0022   44.6191   65.9134 C   0  0  0  0  0  0  0  0  0  0  0  0
    6.2518   45.7950   64.8431 N   0  0  0  0  0  0  0  0  0  0  0  0
    6.4487   42.5731   60.8061 C   0  0  0  0  0  0  0  0  0  0  0  0
    6.8303   44.2720   62.5639 C   0  0  0  0  0  0  0  0  0  0  0  0
    5.2495   45.7213   64.4387 C   0  0  0  0  0  0  0  0  0  0  0  0
    4.0407   46.2496   64.8117 C   0  0  0  0  0  0  0  0  0  0  0  0
    5.5072   45.0493   63.5058 C   0  0  0  0  0  0  0  0  0  0  0  0
    6.6188   44.8814   63.4996 C   0  0  0  0  0  0  0  0  0  0  0  0
    7.8509   41.9919   58.7595 C   0  0  0  0  0  0  0  0  0  0  0  0
   12.3413   44.5616   66.4212 C   0  0  0  0  0  0  0  0  0  0  0  0
    7.6290   40.6847   59.0104 C   0  0  0  0  0  0  0  0  0  0  0  0
    4.6157   44.5655   62.6271 C   0  0  0  0  0  0  0  0  0  0  0  0
    6.8118   40.2297   60.0517 C   0  0  0  0  0  0  0  0  0  0  0  0
    7.4647   39.4124   57.4318 C   0  0  0  0  0  0  0  0  0  0  0  0
    9.4417   39.4544   58.4081 C   0  0  0  0  0  0  0  0  0  0  0  0
    9.7847   38.3422   57.7610 C   0  0  0  0  0  0  0  0  0  0  0  0
    6.2081   41.2021   61.0103 C   0  0  0  0  0  0  0  0  0  0  0  0
    7.9421   38.3988   56.5565 C   0  0  0  0  0  0  0  0  0  0  0  0
    5.0533   43.3278   62.2387 C   0  0  0  0  0  0  0  0  0  0  0  0
    9.2889   38.4048   56.5121 C   0  0  0  0  0  0  0  0  0  0  0  0
    7.2480   42.9525   59.6445 C   0  0  0  0  0  0  0  0  0  0  0  0
  1  4  2  0
  1 11  1  0
  1 14  1  0
  2 10  1  0
  2 15  1  0
  2 21  1  0
  3 19  2  0
  4  7  1  0
  5 24  1  0
  5 27  1  0
  5 28  1  0
  6 27  2  0
  7 10  2  0
  8 19  1  0
  9 17  2  0
 10 12  1  0
 11 23  1  0
 12 14  2  0
 13 16  1  0
 13 17  1  0
 13 32  1  0
 15 18  2  0
 16 30  1  0
 16 34  2  0
 17 21  1  0
 18 19  1  0
 18 20  1  0
 20 21  2  0
 20 25  1  0
 22 24  2  0
 22 34  1  0
 24 26  1  0
 25 32  1  0
 26 30  2  0
 27 31  1  0
 28 29  1  0
 29 33  1  0
 31 33  1  0
M  END
$$$$
