examples/2p16/3_docked.pdbqt
 OpenBabel01072517173D

 34 38  0  0  0  0  0  0  0  0999 V2000
    4.9070   44.5420   61.9420 N   0  0  0  0  0  0  0  0  0  0  0  0
    4.9100   43.1100   60.2320 O   0  0  0  0  0  0  0  0  0  0  0  0
    4.6980   41.3560   61.2290 N   0  0  0  0  0  0  0  0  0  0  0  0
    4.4130   44.7090   63.0040 N   0  0  0  0  0  0  0  0  0  0  0  0
    4.6930   42.6360   61.1410 C   0  0  0  0  0  0  0  0  0  0  0  0
    3.8540   43.9430   63.5290 C   0  0  0  0  0  0  0  0  0  0  0  0
    4.0150   43.0730   62.7500 C   0  0  0  0  0  0  0  0  0  0  0  0
    4.6010   43.4890   61.8860 C   0  0  0  0  0  0  0  0  0  0  0  0
    3.5810   41.8110   62.8950 C   0  0  0  0  0  2  0  0  0  0  0  0
    4.5170   40.9890   62.3290 C   0  0  0  0  0  2  0  0  0  0  0  0
    5.5380   45.3900   61.3050 C   0  0  0  0  0  0  0  0  0  0  0  0
    6.7060   47.2650   60.1070 C   0  0  0  0  0  0  0  0  0  0  0  0
    7.4520   46.3760   60.6160 C   0  0  0  0  0  3  0  0  0  0  0  0
    5.6160   47.2100   60.1360 C   0  0  0  0  0  3  0  0  0  0  0  0
    6.8290   45.5400   61.2490 C   0  0  0  0  0  3  0  0  0  0  0  0
    5.0970   46.1790   60.7610 C   0  0  0  0  0  3  0  0  0  0  0  0
    7.2860   48.0940   59.6980 O   0  0  0  0  0  0  0  0  0  0  0  0
    6.9450   48.8260   58.9070 C   0  0  0  0  0  1  0  0  0  0  0  0
    3.1330   43.9340   64.6940 C   0  0  0  0  0  0  0  0  0  0  0  0
    3.1870   43.2310   65.4650 O   0  0  0  0  0  0  0  0  0  0  0  0
    2.4640   44.7280   64.7340 N   0  0  0  0  0  0  0  0  0  0  0  0
    4.9660   40.3060   60.3530 C   0  0  0  0  0  0  0  0  0  0  0  0
    3.9040   39.8300   59.5640 C   0  0  0  0  0  3  0  0  0  0  0  0
    6.1770   39.4930   60.4170 C   0  0  0  0  0  3  0  0  0  0  0  0
    4.0700   38.5160   58.8760 C   0  0  0  0  0  3  0  0  0  0  0  0
    6.2960   38.2110   59.7750 C   0  0  0  0  0  3  0  0  0  0  0  0
    5.2420   37.7710   59.0580 C   0  0  0  0  0  0  0  0  0  0  0  0
    5.3040   36.6760   58.5470 N   0  0  0  0  0  0  0  0  0  0  0  0
    5.1650   35.7530   59.3050 C   0  0  0  0  0  0  0  0  0  0  0  0
    5.4790   36.4380   57.2330 C   0  0  0  0  0  2  0  0  0  0  0  0
    5.0200   35.9340   60.3790 O   0  0  0  0  0  0  0  0  0  0  0  0
    5.2630   34.4080   58.8540 C   0  0  0  0  0  2  0  0  0  0  0  0
    5.8210   35.2010   56.8760 C   0  0  0  0  0  2  0  0  0  0  0  0
    5.0260   34.3340   57.5290 C   0  0  0  0  0  2  0  0  0  0  0  0
  1  4  1  0  0  0  0
  2  5  2  0  0  0  0
  3 10  1  0  0  0  0
  4  6  2  0  0  0  0
  5  3  1  0  0  0  0
  5  8  1  0  0  0  0
  6 19  1  0  0  0  0
  7  9  1  0  0  0  0
  7  6  1  0  0  0  0
  8  1  1  0  0  0  0
  8  7  2  0  0  0  0
 10  9  1  0  0  0  0
 11  1  1  0  0  0  0
 12 14  2  0  0  0  0
 12 13  1  0  0  0  0
 13 15  2  0  0  0  0
 14 16  1  0  0  0  0
 15 11  1  0  0  0  0
 16 11  2  0  0  0  0
 17 12  1  0  0  0  0
 18 17  1  0  0  0  0
 19 21  1  0  0  0  0
 19 20  2  0  0  0  0
 22 24  1  0  0  0  0
 22  3  1  0  0  0  0
 23 22  2  0  0  0  0
 25 27  2  0  0  0  0
 25 23  1  0  0  0  0
 26 24  2  0  0  0  0
 27 26  1  0  0  0  0
 28 27  1  0  0  0  0
 28 29  1  0  0  0  0
 29 31  2  0  0  0  0
 30 28  1  0  0  0  0
 32 29  1  0  0  0  0
 33 30  1  0  0  0  0
 33 34  1  0  0  0  0
 34 32  1  0  0  0  0
M  END
>  <MODEL>
1

>  <REMARK>
 VINA RESULT:    -7.665      0.000      0.000
 INTER + INTRA:         -10.502
 INTER:                 -10.083
 INTRA:                  -0.420
 UNBOUND:                -0.597
 Flexibility Score: inf
 Active torsions [ 5 ] -> [ 5 ]

>  <TORSDO>
F 5

$$$$
