MODEL 1
REMARK VINA RESULT:    -7.665      0.000      0.000
REMARK INTER + INTRA:         -10.502
REMARK INTER:                 -10.083
REMARK INTRA:                  -0.420
REMARK UNBOUND:                -0.597
REMARK Flexibility Score: inf
REMARK Active torsions [ 5 ] -> [ 5 ]
ROOT
ATOM      1  N1  LIG L   1       4.907  44.542  61.942  1.00  0.00    -0.227 N 
ATOM      2  O1  LIG L   1       4.910  43.110  60.232  1.00  0.00    -0.268 OA
ATOM      3  N2  LIG L   1       4.698  41.356  61.229  1.00  0.00    -0.266 N 
ATOM      4  N3  LIG L   1       4.413  44.709  63.004  1.00  0.00    -0.161 NA
ATOM      5  C1  LIG L   1       4.693  42.636  61.141  1.00  0.00     0.270 C 
ATOM      6  C2  LIG L   1       3.854  43.943  63.529  1.00  0.00     0.151 A 
ATOM      7  C3  LIG L   1       4.015  43.073  62.750  1.00  0.00     0.017 A 
ATOM      8  C4  LIG L   1       4.601  43.489  61.886  1.00  0.00     0.133 A 
ATOM      9  C5  LIG L   1       3.581  41.811  62.895  1.00  0.00     0.059 C 
ATOM     10  C6  LIG L   1       4.517  40.989  62.329  1.00  0.00     0.119 C 
ENDROOT
BRANCH    1   11
ATOM     11  C7  LIG L   1       5.538  45.390  61.305  1.00  0.00     0.066 A 
ATOM     12  C8  LIG L   1       6.706  47.265  60.107  1.00  0.00     0.120 A 
ATOM     13  C9  LIG L   1       7.452  46.376  60.616  1.00  0.00     0.048 A 
ATOM     14 C10  LIG L   1       5.616  47.210  60.136  1.00  0.00     0.048 A 
ATOM     15 C11  LIG L   1       6.829  45.540  61.249  1.00  0.00     0.031 A 
ATOM     16 C12  LIG L   1       5.097  46.179  60.761  1.00  0.00     0.031 A 
BRANCH   12   17
ATOM     17  O2  LIG L   1       7.286  48.094  59.698  1.00  0.00    -0.495 OA
ATOM     18 C13  LIG L   1       6.945  48.826  58.907  1.00  0.00     0.277 C 
ENDBRANCH   12   17
ENDBRANCH    1   11
BRANCH    6   19
ATOM     19 C14  LIG L   1       3.133  43.934  64.694  1.00  0.00     0.262 C 
ATOM     20  O3  LIG L   1       3.187  43.231  65.465  1.00  0.00    -0.269 OA
ATOM     21  N4  LIG L   1       2.464  44.728  64.734  1.00  0.00    -0.324 N 
ATOM     22  H1  LIG L   1       1.881  44.842  65.519  1.00  0.00     0.145 HD
ATOM     23  H2  LIG L   1       2.413  45.365  63.986  1.00  0.00     0.145 HD
ENDBRANCH    6   19
BRANCH    3   24
ATOM     24 C15  LIG L   1       4.966  40.306  60.353  1.00  0.00     0.037 A 
ATOM     25 C16  LIG L   1       3.904  39.830  59.564  1.00  0.00     0.025 A 
ATOM     26 C17  LIG L   1       6.177  39.493  60.417  1.00  0.00     0.025 A 
ATOM     27 C18  LIG L   1       4.070  38.516  58.876  1.00  0.00     0.025 A 
ATOM     28 C19  LIG L   1       6.296  38.211  59.775  1.00  0.00     0.025 A 
ATOM     29 C20  LIG L   1       5.242  37.771  59.058  1.00  0.00     0.036 A 
BRANCH   29   30
ATOM     30  N5  LIG L   1       5.304  36.676  58.547  1.00  0.00    -0.271 N 
ATOM     31 C21  LIG L   1       5.165  35.753  59.305  1.00  0.00     0.220 C 
ATOM     32 C22  LIG L   1       5.479  36.438  57.233  1.00  0.00     0.113 C 
ATOM     33  O4  LIG L   1       5.020  35.934  60.379  1.00  0.00    -0.275 OA
ATOM     34 C23  LIG L   1       5.263  34.408  58.854  1.00  0.00     0.096 C 
ATOM     35 C24  LIG L   1       5.821  35.201  56.876  1.00  0.00     0.020 C 
ATOM     36 C25  LIG L   1       5.026  34.334  57.529  1.00  0.00     0.011 C 
ENDBRANCH   29   30
ENDBRANCH    3   24
TORSDOF 5
ENDMDL
