
     RDKit          3D

 34 38  0  0  0  0  0  0  0  0999 V2000
   10.7267   45.2953   65.4811 C   0  0  0  0  0  0  0  0  0  0  0  0
    7.2055   45.3362   64.3260 N   0  0  0  0  0  0  0  0  0  0  0  0
    3.1669   46.3533   64.2199 O   0  0  0  0  0  0  0  0  0  0  0  0
   10.4198   46.2552   64.6972 C   0  0  0  0  0  0  0  0  0  0  0  0
    8.1550   39.8447   58.3145 N   0  0  0  0  0  0  0  0  0  0  0  0
    6.4286   39.7388   57.3077 O   0  0  0  0  0  0  0  0  0  0  0  0
    9.2798   46.2003   64.3319 C   0  0  0  0  0  0  0  0  0  0  0  0
    4.0441   46.5683   65.7980 N   0  0  0  0  0  0  0  0  0  0  0  0
    7.8401   44.4478   62.4143 O   0  0  0  0  0  0  0  0  0  0  0  0
    8.3438   45.4193   64.7318 C   0  0  0  0  0  0  0  0  0  0  0  0
   11.8352   45.2672   65.7229 O   0  0  0  0  0  0  0  0  0  0  0  0
    8.7804   44.7631   65.4156 C   0  0  0  0  0  0  0  0  0  0  0  0
    6.1403   43.4437   61.8653 N   0  0  0  0  0  0  0  0  0  0  0  0
    9.9910   44.5895   65.8452 C   0  0  0  0  0  0  0  0  0  0  0  0
    6.2648   45.7958   64.8601 N   0  0  0  0  0  0  0  0  0  0  0  0
    6.4289   42.5711   60.8225 C   0  0  0  0  0  0  0  0  0  0  0  0
    6.8162   44.2656   62.5865 C   0  0  0  0  0  0  0  0  0  0  0  0
    5.2532   45.7124   64.4513 C   0  0  0  0  0  0  0  0  0  0  0  0
    4.0567   46.2342   64.8376 C   0  0  0  0  0  0  0  0  0  0  0  0
    5.5148   45.0468   63.5266 C   0  0  0  0  0  0  0  0  0  0  0  0
    6.6130   44.8797   63.4968 C   0  0  0  0  0  0  0  0  0  0  0  0
    7.8167   41.9972   58.7461 C   0  0  0  0  0  0  0  0  0  0  0  0
   12.3712   44.5439   66.4154 C   0  0  0  0  0  0  0  0  0  0  0  0
    7.6077   40.6742   59.0014 C   0  0  0  0  0  0  0  0  0  0  0  0
    4.6048   44.5583   62.6179 C   0  0  0  0  0  0  0  0  0  0  0  0
    6.8091   40.2338   60.0658 C   0  0  0  0  0  0  0  0  0  0  0  0
    7.4680   39.3998   57.4221 C   0  0  0  0  0  0  0  0  0  0  0  0
    9.4354   39.4263   58.3945 C   0  0  0  0  0  0  0  0  0  0  0  0
    9.7805   38.3255   57.7806 C   0  0  0  0  0  0  0  0  0  0  0  0
    6.1910   41.2108   61.0402 C   0  0  0  0  0  0  0  0  0  0  0  0
    7.9426   38.4004   56.5387 C   0  0  0  0  0  0  0  0  0  0  0  0
    5.0637   43.3416   62.2558 C   0  0  0  0  0  0  0  0  0  0  0  0
    9.2685   38.4045   56.5169 C   0  0  0  0  0  0  0  0  0  0  0  0
    7.2073   42.9600   59.6542 C   0  0  0  0  0  0  0  0  0  0  0  0
  1  4  2  0
  1 11  1  0
  1 14  1  0
  2 10  1  0
  2 15  1  0
  2 21  1  0
  3 19  2  0
  4  7  1  0
  5 24  1  0
  5 27  1  0
  5 28  1  0
  6 27  2  0
  7 10  2  0
  8 19  1  0
  9 17  2  0
 10 12  1  0
 11 23  1  0
 12 14  2  0
 13 16  1  0
 13 17  1  0
 13 32  1  0
 15 18  2  0
 16 30  1  0
 16 34  2  0
 17 21  1  0
 18 19  1  0
 18 20  1  0
 20 21  2  0
 20 25  1  0
 22 24  2  0
 22 34  1  0
 24 26  1  0
 25 32  1  0
 26 30  2  0
 27 31  1  0
 28 29  1  0
 29 33  1  0
 31 33  1  0
M  END
$$$$
