examples/2p16/4_docked.pdbqt
 OpenBabel01072517183D

 34 38  0  0  0  0  0  0  0  0999 V2000
    7.8600   45.6000   64.5080 N   0  0  0  0  0  0  0  0  0  0  0  0
    8.3800   44.7150   62.5610 O   0  0  0  0  0  0  0  0  0  0  0  0
    6.6680   43.6720   62.1340 N   0  0  0  0  0  0  0  0  0  0  0  0
    6.9480   46.0430   65.1040 N   0  0  0  0  0  0  0  0  0  0  0  0
    7.3740   44.5120   62.8040 C   0  0  0  0  0  0  0  0  0  0  0  0
    5.9130   45.9360   64.7660 C   0  0  0  0  0  0  0  0  0  0  0  0
    6.1250   45.2710   63.8290 C   0  0  0  0  0  0  0  0  0  0  0  0
    7.2210   45.1270   63.7240 C   0  0  0  0  0  0  0  0  0  0  0  0
    5.1650   44.7580   62.9870 C   0  0  0  0  0  2  0  0  0  0  0  0
    5.6240   43.5500   62.5990 C   0  0  0  0  0  2  0  0  0  0  0  0
    9.0210   45.7090   64.8340 C   0  0  0  0  0  0  0  0  0  0  0  0
   11.3130   46.0130   65.7890 C   0  0  0  0  0  0  0  0  0  0  0  0
   11.0730   44.8980   65.2150 C   0  0  0  0  0  3  0  0  0  0  0  0
   10.5830   46.8110   65.8270 C   0  0  0  0  0  3  0  0  0  0  0  0
    9.9350   44.8090   64.8490 C   0  0  0  0  0  3  0  0  0  0  0  0
    9.4370   46.5580   65.2770 C   0  0  0  0  0  3  0  0  0  0  0  0
   12.3480   46.0510   66.2530 O   0  0  0  0  0  0  0  0  0  0  0  0
   12.9590   45.1780   66.6430 C   0  0  0  0  0  1  0  0  0  0  0  0
    4.7350   46.4350   65.2320 C   0  0  0  0  0  0  0  0  0  0  0  0
    4.0120   47.0290   64.6730 O   0  0  0  0  0  0  0  0  0  0  0  0
    4.5670   46.2430   66.2160 N   0  0  0  0  0  0  0  0  0  0  0  0
    6.9030   42.8000   61.0780 C   0  0  0  0  0  0  0  0  0  0  0  0
    6.8000   41.4310   61.3420 C   0  0  0  0  0  3  0  0  0  0  0  0
    7.5080   43.2200   59.8210 C   0  0  0  0  0  3  0  0  0  0  0  0
    7.3770   40.4820   60.3170 C   0  0  0  0  0  3  0  0  0  0  0  0
    8.0830   42.2850   58.8620 C   0  0  0  0  0  3  0  0  0  0  0  0
    8.0100   40.9560   59.1590 C   0  0  0  0  0  0  0  0  0  0  0  0
    8.5380   40.1560   58.4250 N   0  0  0  0  0  0  0  0  0  0  0  0
    7.8950   39.8800   57.4380 C   0  0  0  0  0  0  0  0  0  0  0  0
    9.7640   39.6060   58.5550 C   0  0  0  0  0  2  0  0  0  0  0  0
    6.9040   40.3300   57.2840 O   0  0  0  0  0  0  0  0  0  0  0  0
    8.3530   38.9380   56.4840 C   0  0  0  0  0  2  0  0  0  0  0  0
   10.0610   38.5490   57.8470 C   0  0  0  0  0  2  0  0  0  0  0  0
    9.6710   38.8130   56.5650 C   0  0  0  0  0  2  0  0  0  0  0  0
  1 11  1  0  0  0  0
  1  4  1  0  0  0  0
  2  5  2  0  0  0  0
  3 10  1  0  0  0  0
  3  5  1  0  0  0  0
  5  8  1  0  0  0  0
  6  4  2  0  0  0  0
  6 19  1  0  0  0  0
  7  6  1  0  0  0  0
  8  7  2  0  0  0  0
  8  1  1  0  0  0  0
  9  7  1  0  0  0  0
 10  9  1  0  0  0  0
 11 15  2  0  0  0  0
 11 16  1  0  0  0  0
 12 14  1  0  0  0  0
 12 17  1  0  0  0  0
 13 12  2  0  0  0  0
 15 13  1  0  0  0  0
 16 14  2  0  0  0  0
 17 18  1  0  0  0  0
 19 21  1  0  0  0  0
 20 19  2  0  0  0  0
 22 23  1  0  0  0  0
 22  3  1  0  0  0  0
 24 22  2  0  0  0  0
 25 23  2  0  0  0  0
 26 27  2  0  0  0  0
 26 24  1  0  0  0  0
 27 25  1  0  0  0  0
 28 30  1  0  0  0  0
 28 27  1  0  0  0  0
 29 28  1  0  0  0  0
 31 29  2  0  0  0  0
 32 34  1  0  0  0  0
 32 29  1  0  0  0  0
 33 30  1  0  0  0  0
 34 33  1  0  0  0  0
M  END
>  <MODEL>
1

>  <REMARK>
 VINA RESULT:   -14.270      0.000      0.000
 INTER + INTRA:         -18.468
 INTER:                 -18.531
 INTRA:                   0.063
 UNBOUND:                -0.027
 Flexibility Score: inf
 Active torsions [ 5 ] -> [ 5 ]

>  <TORSDO>
F 5

$$$$
