MODEL 1
REMARK VINA RESULT:   -14.270      0.000      0.000
REMARK INTER + INTRA:         -18.468
REMARK INTER:                 -18.531
REMARK INTRA:                   0.063
REMARK UNBOUND:                -0.027
REMARK Flexibility Score: inf
REMARK Active torsions [ 5 ] -> [ 5 ]
ROOT
ATOM      1  N1  LIG L   1       7.860  45.600  64.508  1.00  0.00    -0.227 N 
ATOM      2  O1  LIG L   1       8.380  44.715  62.561  1.00  0.00    -0.268 OA
ATOM      3  N2  LIG L   1       6.668  43.672  62.134  1.00  0.00    -0.266 N 
ATOM      4  N3  LIG L   1       6.948  46.043  65.104  1.00  0.00    -0.161 NA
ATOM      5  C1  LIG L   1       7.374  44.512  62.804  1.00  0.00     0.270 C 
ATOM      6  C2  LIG L   1       5.913  45.936  64.766  1.00  0.00     0.151 A 
ATOM      7  C3  LIG L   1       6.125  45.271  63.829  1.00  0.00     0.017 A 
ATOM      8  C4  LIG L   1       7.221  45.127  63.724  1.00  0.00     0.133 A 
ATOM      9  C5  LIG L   1       5.165  44.758  62.987  1.00  0.00     0.059 C 
ATOM     10  C6  LIG L   1       5.624  43.550  62.599  1.00  0.00     0.119 C 
ENDROOT
BRANCH    1   11
ATOM     11  C7  LIG L   1       9.021  45.709  64.834  1.00  0.00     0.066 A 
ATOM     12  C8  LIG L   1      11.313  46.013  65.789  1.00  0.00     0.120 A 
ATOM     13  C9  LIG L   1      11.073  44.898  65.215  1.00  0.00     0.048 A 
ATOM     14 C10  LIG L   1      10.583  46.811  65.827  1.00  0.00     0.048 A 
ATOM     15 C11  LIG L   1       9.935  44.809  64.849  1.00  0.00     0.031 A 
ATOM     16 C12  LIG L   1       9.437  46.558  65.277  1.00  0.00     0.031 A 
BRANCH   12   17
ATOM     17  O2  LIG L   1      12.348  46.051  66.253  1.00  0.00    -0.495 OA
ATOM     18 C13  LIG L   1      12.959  45.178  66.643  1.00  0.00     0.277 C 
ENDBRANCH   12   17
ENDBRANCH    1   11
BRANCH    6   19
ATOM     19 C14  LIG L   1       4.735  46.435  65.232  1.00  0.00     0.262 C 
ATOM     20  O3  LIG L   1       4.012  47.029  64.673  1.00  0.00    -0.269 OA
ATOM     21  N4  LIG L   1       4.567  46.243  66.216  1.00  0.00    -0.324 N 
ATOM     22  H1  LIG L   1       3.741  46.563  66.646  1.00  0.00     0.145 HD
ATOM     23  H2  LIG L   1       5.230  45.737  66.739  1.00  0.00     0.145 HD
ENDBRANCH    6   19
BRANCH    3   24
ATOM     24 C15  LIG L   1       6.903  42.800  61.078  1.00  0.00     0.037 A 
ATOM     25 C16  LIG L   1       6.800  41.431  61.342  1.00  0.00     0.025 A 
ATOM     26 C17  LIG L   1       7.508  43.220  59.821  1.00  0.00     0.025 A 
ATOM     27 C18  LIG L   1       7.377  40.482  60.317  1.00  0.00     0.025 A 
ATOM     28 C19  LIG L   1       8.083  42.285  58.862  1.00  0.00     0.025 A 
ATOM     29 C20  LIG L   1       8.010  40.956  59.159  1.00  0.00     0.036 A 
BRANCH   29   30
ATOM     30  N5  LIG L   1       8.538  40.156  58.425  1.00  0.00    -0.271 N 
ATOM     31 C21  LIG L   1       7.895  39.880  57.438  1.00  0.00     0.220 C 
ATOM     32 C22  LIG L   1       9.764  39.606  58.555  1.00  0.00     0.113 C 
ATOM     33  O4  LIG L   1       6.904  40.330  57.284  1.00  0.00    -0.275 OA
ATOM     34 C23  LIG L   1       8.353  38.938  56.484  1.00  0.00     0.096 C 
ATOM     35 C24  LIG L   1      10.061  38.549  57.847  1.00  0.00     0.020 C 
ATOM     36 C25  LIG L   1       9.671  38.813  56.565  1.00  0.00     0.011 C 
ENDBRANCH   29   30
ENDBRANCH    3   24
TORSDOF 5
ENDMDL
