
     RDKit          3D

 34 38  0  0  0  0  0  0  0  0999 V2000
   10.7360   45.3020   65.4869 C   0  0  0  0  0  0  0  0  0  0  0  0
    7.2045   45.3314   64.2998 N   0  0  0  0  0  0  0  0  0  0  0  0
    3.1947   46.3451   64.2254 O   0  0  0  0  0  0  0  0  0  0  0  0
   10.4350   46.2264   64.6998 C   0  0  0  0  0  0  0  0  0  0  0  0
    8.1502   39.8516   58.2960 N   0  0  0  0  0  0  0  0  0  0  0  0
    6.4247   39.7294   57.3416 O   0  0  0  0  0  0  0  0  0  0  0  0
    9.3025   46.1837   64.3120 C   0  0  0  0  0  0  0  0  0  0  0  0
    4.0518   46.5868   65.7983 N   0  0  0  0  0  0  0  0  0  0  0  0
    7.8493   44.3913   62.4220 O   0  0  0  0  0  0  0  0  0  0  0  0
    8.3739   45.4080   64.7062 C   0  0  0  0  0  0  0  0  0  0  0  0
   11.7943   45.2741   65.7256 O   0  0  0  0  0  0  0  0  0  0  0  0
    8.8116   44.7372   65.3987 C   0  0  0  0  0  0  0  0  0  0  0  0
    6.1550   43.4172   61.8744 N   0  0  0  0  0  0  0  0  0  0  0  0
   10.0117   44.5968   65.8587 C   0  0  0  0  0  0  0  0  0  0  0  0
    6.2594   45.7959   64.8365 N   0  0  0  0  0  0  0  0  0  0  0  0
    6.4250   42.5559   60.8176 C   0  0  0  0  0  0  0  0  0  0  0  0
    6.8469   44.2342   62.5899 C   0  0  0  0  0  0  0  0  0  0  0  0
    5.2482   45.7180   64.4356 C   0  0  0  0  0  0  0  0  0  0  0  0
    4.0322   46.2341   64.8057 C   0  0  0  0  0  0  0  0  0  0  0  0
    5.4978   45.0518   63.4948 C   0  0  0  0  0  0  0  0  0  0  0  0
    6.6195   44.8693   63.4714 C   0  0  0  0  0  0  0  0  0  0  0  0
    7.7956   41.9761   58.7255 C   0  0  0  0  0  0  0  0  0  0  0  0
   12.3395   44.5516   66.3911 C   0  0  0  0  0  0  0  0  0  0  0  0
    7.5917   40.6770   59.0085 C   0  0  0  0  0  0  0  0  0  0  0  0
    4.6177   44.5440   62.6126 C   0  0  0  0  0  0  0  0  0  0  0  0
    6.7971   40.2404   60.0599 C   0  0  0  0  0  0  0  0  0  0  0  0
    7.4645   39.4090   57.4408 C   0  0  0  0  0  0  0  0  0  0  0  0
    9.4277   39.4367   58.3760 C   0  0  0  0  0  0  0  0  0  0  0  0
    9.7754   38.3535   57.7533 C   0  0  0  0  0  0  0  0  0  0  0  0
    6.1931   41.2014   61.0093 C   0  0  0  0  0  0  0  0  0  0  0  0
    7.9461   38.4025   56.5523 C   0  0  0  0  0  0  0  0  0  0  0  0
    5.0566   43.3289   62.2374 C   0  0  0  0  0  0  0  0  0  0  0  0
    9.2949   38.4136   56.5060 C   0  0  0  0  0  0  0  0  0  0  0  0
    7.1884   42.9557   59.6498 C   0  0  0  0  0  0  0  0  0  0  0  0
  1  4  2  0
  1 11  1  0
  1 14  1  0
  2 10  1  0
  2 15  1  0
  2 21  1  0
  3 19  2  0
  4  7  1  0
  5 24  1  0
  5 27  1  0
  5 28  1  0
  6 27  2  0
  7 10  2  0
  8 19  1  0
  9 17  2  0
 10 12  1  0
 11 23  1  0
 12 14  2  0
 13 16  1  0
 13 17  1  0
 13 32  1  0
 15 18  2  0
 16 30  1  0
 16 34  2  0
 17 21  1  0
 18 19  1  0
 18 20  1  0
 20 21  2  0
 20 25  1  0
 22 24  2  0
 22 34  1  0
 24 26  1  0
 25 32  1  0
 26 30  2  0
 27 31  1  0
 28 29  1  0
 29 33  1  0
 31 33  1  0
M  END
$$$$
