examples/2p16/5_docked.pdbqt
 OpenBabel01072517173D

 34 38  0  0  0  0  0  0  0  0999 V2000
    4.7580   44.5000   61.7580 N   0  0  0  0  0  0  0  0  0  0  0  0
    4.6940   42.9670   60.1860 O   0  0  0  0  0  0  0  0  0  0  0  0
    4.4760   41.2820   61.2960 N   0  0  0  0  0  0  0  0  0  0  0  0
    4.3370   44.7550   62.8340 N   0  0  0  0  0  0  0  0  0  0  0  0
    4.5170   42.5560   61.1120 C   0  0  0  0  0  0  0  0  0  0  0  0
    3.7900   44.0370   63.4460 C   0  0  0  0  0  0  0  0  0  0  0  0
    3.8760   43.1090   62.7210 C   0  0  0  0  0  0  0  0  0  0  0  0
    4.4310   43.4350   61.7840 C   0  0  0  0  0  0  0  0  0  0  0  0
    3.4420   41.8590   62.9620 C   0  0  0  0  0  2  0  0  0  0  0  0
    4.3160   40.9990   62.4090 C   0  0  0  0  0  2  0  0  0  0  0  0
    5.3690   45.2860   61.0190 C   0  0  0  0  0  0  0  0  0  0  0  0
    6.4330   47.0520   59.6230 C   0  0  0  0  0  0  0  0  0  0  0  0
    7.1940   46.2640   60.2260 C   0  0  0  0  0  3  0  0  0  0  0  0
    5.3600   46.9630   59.6560 C   0  0  0  0  0  3  0  0  0  0  0  0
    6.6230   45.4800   60.9290 C   0  0  0  0  0  3  0  0  0  0  0  0
    4.9040   46.0120   60.4040 C   0  0  0  0  0  3  0  0  0  0  0  0
    6.9640   47.8370   59.0950 O   0  0  0  0  0  0  0  0  0  0  0  0
    6.6260   48.8870   58.8820 C   0  0  0  0  0  1  0  0  0  0  0  0
    3.1370   44.1100   64.6500 C   0  0  0  0  0  0  0  0  0  0  0  0
    3.3270   43.5700   65.5000 O   0  0  0  0  0  0  0  0  0  0  0  0
    2.3240   44.7770   64.6040 N   0  0  0  0  0  0  0  0  0  0  0  0
    4.6530   40.1620   60.4940 C   0  0  0  0  0  0  0  0  0  0  0  0
    5.8560   39.4760   60.5910 C   0  0  0  0  0  3  0  0  0  0  0  0
    3.7800   39.8440   59.3790 C   0  0  0  0  0  3  0  0  0  0  0  0
    6.2150   38.5220   59.5200 C   0  0  0  0  0  3  0  0  0  0  0  0
    4.1680   38.8980   58.3110 C   0  0  0  0  0  3  0  0  0  0  0  0
    5.3770   38.3220   58.4300 C   0  0  0  0  0  0  0  0  0  0  0  0
    5.7450   37.5940   57.5170 N   0  0  0  0  0  0  0  0  0  0  0  0
    5.4420   36.4590   57.6520 C   0  0  0  0  0  0  0  0  0  0  0  0
    6.4140   37.9540   56.4060 C   0  0  0  0  0  2  0  0  0  0  0  0
    4.8920   36.1330   58.5370 O   0  0  0  0  0  0  0  0  0  0  0  0
    5.8330   35.4700   56.7000 C   0  0  0  0  0  2  0  0  0  0  0  0
    6.9870   37.0340   55.6940 C   0  0  0  0  0  2  0  0  0  0  0  0
    6.1120   36.0400   55.5090 C   0  0  0  0  0  2  0  0  0  0  0  0
  1  8  1  0  0  0  0
  1  4  1  0  0  0  0
  2  5  2  0  0  0  0
  3 10  1  0  0  0  0
  4  6  2  0  0  0  0
  5  3  1  0  0  0  0
  5  8  1  0  0  0  0
  6 19  1  0  0  0  0
  7  9  1  0  0  0  0
  7  6  1  0  0  0  0
  8  7  2  0  0  0  0
 10  9  1  0  0  0  0
 11  1  1  0  0  0  0
 12 14  2  0  0  0  0
 12 13  1  0  0  0  0
 13 15  2  0  0  0  0
 14 16  1  0  0  0  0
 15 11  1  0  0  0  0
 16 11  2  0  0  0  0
 17 12  1  0  0  0  0
 18 17  1  0  0  0  0
 19 20  2  0  0  0  0
 21 19  1  0  0  0  0
 22 23  1  0  0  0  0
 22  3  1  0  0  0  0
 24 22  2  0  0  0  0
 25 23  2  0  0  0  0
 26 27  2  0  0  0  0
 26 24  1  0  0  0  0
 27 25  1  0  0  0  0
 28 29  1  0  0  0  0
 28 27  1  0  0  0  0
 29 31  2  0  0  0  0
 30 28  1  0  0  0  0
 32 29  1  0  0  0  0
 33 30  1  0  0  0  0
 34 33  1  0  0  0  0
 34 32  1  0  0  0  0
M  END
>  <MODEL>
1

>  <REMARK>
 VINA RESULT:    -8.391      0.000      0.000
 INTER + INTRA:         -10.594
 INTER:                 -10.187
 INTRA:                  -0.406
 UNBOUND:                 0.250
 Flexibility Score: inf
 Active torsions [ 5 ] -> [ 5 ]

>  <TORSDO>
F 5

$$$$
