MODEL 1
REMARK VINA RESULT:    -8.391      0.000      0.000
REMARK INTER + INTRA:         -10.594
REMARK INTER:                 -10.187
REMARK INTRA:                  -0.406
REMARK UNBOUND:                 0.250
REMARK Flexibility Score: inf
REMARK Active torsions [ 5 ] -> [ 5 ]
ROOT
ATOM      1  N1  LIG L   1       4.758  44.500  61.758  1.00  0.00    -0.227 N 
ATOM      2  O1  LIG L   1       4.694  42.967  60.186  1.00  0.00    -0.268 OA
ATOM      3  N2  LIG L   1       4.476  41.282  61.296  1.00  0.00    -0.266 N 
ATOM      4  N3  LIG L   1       4.337  44.755  62.834  1.00  0.00    -0.161 NA
ATOM      5  C1  LIG L   1       4.517  42.556  61.112  1.00  0.00     0.270 C 
ATOM      6  C2  LIG L   1       3.790  44.037  63.446  1.00  0.00     0.151 A 
ATOM      7  C3  LIG L   1       3.876  43.109  62.721  1.00  0.00     0.017 A 
ATOM      8  C4  LIG L   1       4.431  43.435  61.784  1.00  0.00     0.133 A 
ATOM      9  C5  LIG L   1       3.442  41.859  62.962  1.00  0.00     0.059 C 
ATOM     10  C6  LIG L   1       4.316  40.999  62.409  1.00  0.00     0.119 C 
ENDROOT
BRANCH    1   11
ATOM     11  C7  LIG L   1       5.369  45.286  61.019  1.00  0.00     0.066 A 
ATOM     12  C8  LIG L   1       6.433  47.052  59.623  1.00  0.00     0.120 A 
ATOM     13  C9  LIG L   1       7.194  46.264  60.226  1.00  0.00     0.048 A 
ATOM     14 C10  LIG L   1       5.360  46.963  59.656  1.00  0.00     0.048 A 
ATOM     15 C11  LIG L   1       6.623  45.480  60.929  1.00  0.00     0.031 A 
ATOM     16 C12  LIG L   1       4.904  46.012  60.404  1.00  0.00     0.031 A 
BRANCH   12   17
ATOM     17  O2  LIG L   1       6.964  47.837  59.095  1.00  0.00    -0.495 OA
ATOM     18 C13  LIG L   1       6.626  48.887  58.882  1.00  0.00     0.277 C 
ENDBRANCH   12   17
ENDBRANCH    1   11
BRANCH    6   19
ATOM     19 C14  LIG L   1       3.137  44.110  64.650  1.00  0.00     0.262 C 
ATOM     20  O3  LIG L   1       3.327  43.570  65.500  1.00  0.00    -0.269 OA
ATOM     21  N4  LIG L   1       2.324  44.777  64.604  1.00  0.00    -0.324 N 
ATOM     22  H1  LIG L   1       1.765  44.927  65.401  1.00  0.00     0.145 HD
ATOM     23  H2  LIG L   1       2.123  45.252  63.766  1.00  0.00     0.145 HD
ENDBRANCH    6   19
BRANCH    3   24
ATOM     24 C15  LIG L   1       4.653  40.162  60.494  1.00  0.00     0.037 A 
ATOM     25 C16  LIG L   1       5.856  39.476  60.591  1.00  0.00     0.025 A 
ATOM     26 C17  LIG L   1       3.780  39.844  59.379  1.00  0.00     0.025 A 
ATOM     27 C18  LIG L   1       6.215  38.522  59.520  1.00  0.00     0.025 A 
ATOM     28 C19  LIG L   1       4.168  38.898  58.311  1.00  0.00     0.025 A 
ATOM     29 C20  LIG L   1       5.377  38.322  58.430  1.00  0.00     0.036 A 
BRANCH   29   30
ATOM     30  N5  LIG L   1       5.745  37.594  57.517  1.00  0.00    -0.271 N 
ATOM     31 C21  LIG L   1       5.442  36.459  57.652  1.00  0.00     0.220 C 
ATOM     32 C22  LIG L   1       6.414  37.954  56.406  1.00  0.00     0.113 C 
ATOM     33  O4  LIG L   1       4.892  36.133  58.537  1.00  0.00    -0.275 OA
ATOM     34 C23  LIG L   1       5.833  35.470  56.700  1.00  0.00     0.096 C 
ATOM     35 C24  LIG L   1       6.987  37.034  55.694  1.00  0.00     0.020 C 
ATOM     36 C25  LIG L   1       6.112  36.040  55.509  1.00  0.00     0.011 C 
ENDBRANCH   29   30
ENDBRANCH    3   24
TORSDOF 5
ENDMDL
