examples/2p16/6_docked.pdbqt
 OpenBabel01072517173D

 34 38  0  0  0  0  0  0  0  0999 V2000
    7.3710   45.7180   64.7160 N   0  0  0  0  0  0  0  0  0  0  0  0
    8.0680   44.7800   62.8240 O   0  0  0  0  0  0  0  0  0  0  0  0
    6.3950   43.7410   62.2650 N   0  0  0  0  0  0  0  0  0  0  0  0
    6.4240   46.1910   65.2130 N   0  0  0  0  0  0  0  0  0  0  0  0
    7.0450   44.6030   62.9810 C   0  0  0  0  0  0  0  0  0  0  0  0
    5.4210   46.0950   64.7780 C   0  0  0  0  0  0  0  0  0  0  0  0
    5.7040   45.3930   63.8610 C   0  0  0  0  0  0  0  0  0  0  0  0
    6.8160   45.2330   63.8930 C   0  0  0  0  0  0  0  0  0  0  0  0
    4.8330   44.8680   62.9670 C   0  0  0  0  0  2  0  0  0  0  0  0
    5.2960   43.6260   62.6310 C   0  0  0  0  0  2  0  0  0  0  0  0
    8.5050   45.8220   65.1550 C   0  0  0  0  0  0  0  0  0  0  0  0
   10.8890   45.7950   65.9920 C   0  0  0  0  0  0  0  0  0  0  0  0
   10.5590   46.7700   65.2340 C   0  0  0  0  0  3  0  0  0  0  0  0
   10.1680   45.0460   66.3060 C   0  0  0  0  0  3  0  0  0  0  0  0
    9.4080   46.6900   64.8190 C   0  0  0  0  0  3  0  0  0  0  0  0
    8.9440   45.1320   65.8350 C   0  0  0  0  0  3  0  0  0  0  0  0
   11.9480   45.7900   66.2460 O   0  0  0  0  0  0  0  0  0  0  0  0
   12.6160   44.9170   66.4030 C   0  0  0  0  0  1  0  0  0  0  0  0
    4.1870   46.6090   65.1090 C   0  0  0  0  0  0  0  0  0  0  0  0
    3.6800   47.4170   64.6590 O   0  0  0  0  0  0  0  0  0  0  0  0
    3.7790   46.1240   65.9380 N   0  0  0  0  0  0  0  0  0  0  0  0
    6.7070   42.8660   61.2610 C   0  0  0  0  0  0  0  0  0  0  0  0
    6.6320   41.4810   61.5460 C   0  0  0  0  0  3  0  0  0  0  0  0
    7.3920   43.2620   60.0360 C   0  0  0  0  0  3  0  0  0  0  0  0
    7.2900   40.5300   60.5930 C   0  0  0  0  0  3  0  0  0  0  0  0
    8.0680   42.3180   59.1340 C   0  0  0  0  0  3  0  0  0  0  0  0
    8.0040   41.0050   59.4670 C   0  0  0  0  0  0  0  0  0  0  0  0
    8.5890   40.1970   58.7760 N   0  0  0  0  0  0  0  0  0  0  0  0
    7.9320   39.7100   57.9300 C   0  0  0  0  0  0  0  0  0  0  0  0
    9.8810   39.8570   58.9130 C   0  0  0  0  0  2  0  0  0  0  0  0
    6.8840   40.0010   57.8160 O   0  0  0  0  0  0  0  0  0  0  0  0
    8.4610   38.7240   57.0690 C   0  0  0  0  0  2  0  0  0  0  0  0
   10.2760   38.7660   58.3360 C   0  0  0  0  0  2  0  0  0  0  0  0
    9.7920   38.7930   57.0460 C   0  0  0  0  0  2  0  0  0  0  0  0
  1 11  1  0  0  0  0
  1  4  1  0  0  0  0
  2  5  2  0  0  0  0
  3 10  1  0  0  0  0
  3  5  1  0  0  0  0
  5  8  1  0  0  0  0
  6 19  1  0  0  0  0
  6  4  2  0  0  0  0
  7  8  2  0  0  0  0
  7  6  1  0  0  0  0
  8  1  1  0  0  0  0
  9  7  1  0  0  0  0
 10  9  1  0  0  0  0
 11 16  1  0  0  0  0
 12 17  1  0  0  0  0
 12 14  1  0  0  0  0
 13 12  2  0  0  0  0
 15 11  2  0  0  0  0
 15 13  1  0  0  0  0
 16 14  2  0  0  0  0
 17 18  1  0  0  0  0
 19 21  1  0  0  0  0
 20 19  2  0  0  0  0
 22 23  1  0  0  0  0
 22  3  1  0  0  0  0
 24 22  2  0  0  0  0
 25 23  2  0  0  0  0
 26 27  2  0  0  0  0
 26 24  1  0  0  0  0
 27 25  1  0  0  0  0
 28 30  1  0  0  0  0
 28 27  1  0  0  0  0
 29 28  1  0  0  0  0
 31 29  2  0  0  0  0
 32 29  1  0  0  0  0
 33 30  1  0  0  0  0
 34 32  1  0  0  0  0
 34 33  1  0  0  0  0
M  END
>  <MODEL>
1

>  <REMARK>
 VINA RESULT:   -14.683      0.000      0.000
 INTER + INTRA:         -18.391
 INTER:                 -17.999
 INTRA:                  -0.392
 UNBOUND:                 0.584
 Flexibility Score: inf
 Active torsions [ 5 ] -> [ 5 ]

>  <TORSDO>
F 5

$$$$
