MODEL 1
REMARK VINA RESULT:   -14.683      0.000      0.000
REMARK INTER + INTRA:         -18.391
REMARK INTER:                 -17.999
REMARK INTRA:                  -0.392
REMARK UNBOUND:                 0.584
REMARK Flexibility Score: inf
REMARK Active torsions [ 5 ] -> [ 5 ]
ROOT
ATOM      1  N1  LIG L   1       7.371  45.718  64.716  1.00  0.00    -0.227 N 
ATOM      2  O1  LIG L   1       8.068  44.780  62.824  1.00  0.00    -0.268 OA
ATOM      3  N2  LIG L   1       6.395  43.741  62.265  1.00  0.00    -0.266 N 
ATOM      4  N3  LIG L   1       6.424  46.191  65.213  1.00  0.00    -0.161 NA
ATOM      5  C1  LIG L   1       7.045  44.603  62.981  1.00  0.00     0.270 C 
ATOM      6  C2  LIG L   1       5.421  46.095  64.778  1.00  0.00     0.151 A 
ATOM      7  C3  LIG L   1       5.704  45.393  63.861  1.00  0.00     0.017 A 
ATOM      8  C4  LIG L   1       6.816  45.233  63.893  1.00  0.00     0.133 A 
ATOM      9  C5  LIG L   1       4.833  44.868  62.967  1.00  0.00     0.059 C 
ATOM     10  C6  LIG L   1       5.296  43.626  62.631  1.00  0.00     0.119 C 
ENDROOT
BRANCH    1   11
ATOM     11  C7  LIG L   1       8.505  45.822  65.155  1.00  0.00     0.066 A 
ATOM     12  C8  LIG L   1      10.889  45.795  65.992  1.00  0.00     0.120 A 
ATOM     13  C9  LIG L   1      10.559  46.770  65.234  1.00  0.00     0.048 A 
ATOM     14 C10  LIG L   1      10.168  45.046  66.306  1.00  0.00     0.048 A 
ATOM     15 C11  LIG L   1       9.408  46.690  64.819  1.00  0.00     0.031 A 
ATOM     16 C12  LIG L   1       8.944  45.132  65.835  1.00  0.00     0.031 A 
BRANCH   12   17
ATOM     17  O2  LIG L   1      11.948  45.790  66.246  1.00  0.00    -0.495 OA
ATOM     18 C13  LIG L   1      12.616  44.917  66.403  1.00  0.00     0.277 C 
ENDBRANCH   12   17
ENDBRANCH    1   11
BRANCH    6   19
ATOM     19 C14  LIG L   1       4.187  46.609  65.109  1.00  0.00     0.262 C 
ATOM     20  O3  LIG L   1       3.680  47.417  64.659  1.00  0.00    -0.269 OA
ATOM     21  N4  LIG L   1       3.779  46.124  65.938  1.00  0.00    -0.324 N 
ATOM     22  H1  LIG L   1       2.897  46.394  66.282  1.00  0.00     0.145 HD
ATOM     23  H2  LIG L   1       4.278  45.397  66.377  1.00  0.00     0.145 HD
ENDBRANCH    6   19
BRANCH    3   24
ATOM     24 C15  LIG L   1       6.707  42.866  61.261  1.00  0.00     0.037 A 
ATOM     25 C16  LIG L   1       6.632  41.481  61.546  1.00  0.00     0.025 A 
ATOM     26 C17  LIG L   1       7.392  43.262  60.036  1.00  0.00     0.025 A 
ATOM     27 C18  LIG L   1       7.290  40.530  60.593  1.00  0.00     0.025 A 
ATOM     28 C19  LIG L   1       8.068  42.318  59.134  1.00  0.00     0.025 A 
ATOM     29 C20  LIG L   1       8.004  41.005  59.467  1.00  0.00     0.036 A 
BRANCH   29   30
ATOM     30  N5  LIG L   1       8.589  40.197  58.776  1.00  0.00    -0.271 N 
ATOM     31 C21  LIG L   1       7.932  39.710  57.930  1.00  0.00     0.220 C 
ATOM     32 C22  LIG L   1       9.881  39.857  58.913  1.00  0.00     0.113 C 
ATOM     33  O4  LIG L   1       6.884  40.001  57.816  1.00  0.00    -0.275 OA
ATOM     34 C23  LIG L   1       8.461  38.724  57.069  1.00  0.00     0.096 C 
ATOM     35 C24  LIG L   1      10.276  38.766  58.336  1.00  0.00     0.020 C 
ATOM     36 C25  LIG L   1       9.792  38.793  57.046  1.00  0.00     0.011 C 
ENDBRANCH   29   30
ENDBRANCH    3   24
TORSDOF 5
ENDMDL
