
     RDKit          3D

 34 38  0  0  0  0  0  0  0  0999 V2000
   10.7280   45.3437   65.5457 C   0  0  0  0  0  0  0  0  0  0  0  0
    7.2004   45.3468   64.3015 N   0  0  0  0  0  0  0  0  0  0  0  0
    3.1581   46.3474   64.2077 O   0  0  0  0  0  0  0  0  0  0  0  0
   10.4201   46.3045   64.7306 C   0  0  0  0  0  0  0  0  0  0  0  0
    8.1557   39.8636   58.3098 N   0  0  0  0  0  0  0  0  0  0  0  0
    6.4196   39.7263   57.3207 O   0  0  0  0  0  0  0  0  0  0  0  0
    9.2684   46.2316   64.3478 C   0  0  0  0  0  0  0  0  0  0  0  0
    4.0337   46.5927   65.8035 N   0  0  0  0  0  0  0  0  0  0  0  0
    7.8275   44.4165   62.3535 O   0  0  0  0  0  0  0  0  0  0  0  0
    8.3348   45.4199   64.7471 C   0  0  0  0  0  0  0  0  0  0  0  0
   11.8325   45.2981   65.7655 O   0  0  0  0  0  0  0  0  0  0  0  0
    8.7686   44.7490   65.4848 C   0  0  0  0  0  0  0  0  0  0  0  0
    6.1422   43.4341   61.8539 N   0  0  0  0  0  0  0  0  0  0  0  0
    9.9477   44.6012   65.9352 C   0  0  0  0  0  0  0  0  0  0  0  0
    6.2727   45.8126   64.8219 N   0  0  0  0  0  0  0  0  0  0  0  0
    6.4485   42.5715   60.7977 C   0  0  0  0  0  0  0  0  0  0  0  0
    6.8061   44.2684   62.5556 C   0  0  0  0  0  0  0  0  0  0  0  0
    5.2448   45.7414   64.3989 C   0  0  0  0  0  0  0  0  0  0  0  0
    4.0282   46.2463   64.8172 C   0  0  0  0  0  0  0  0  0  0  0  0
    5.5051   45.0532   63.4615 C   0  0  0  0  0  0  0  0  0  0  0  0
    6.6056   44.8915   63.4579 C   0  0  0  0  0  0  0  0  0  0  0  0
    7.8516   42.0111   58.7770 C   0  0  0  0  0  0  0  0  0  0  0  0
   12.3856   44.5590   66.4349 C   0  0  0  0  0  0  0  0  0  0  0  0
    7.6326   40.7022   59.0138 C   0  0  0  0  0  0  0  0  0  0  0  0
    4.5997   44.5579   62.6042 C   0  0  0  0  0  0  0  0  0  0  0  0
    6.8099   40.2549   60.0809 C   0  0  0  0  0  0  0  0  0  0  0  0
    7.4608   39.4019   57.4149 C   0  0  0  0  0  0  0  0  0  0  0  0
    9.4400   39.4479   58.4201 C   0  0  0  0  0  0  0  0  0  0  0  0
    9.7828   38.3393   57.7563 C   0  0  0  0  0  0  0  0  0  0  0  0
    6.2060   41.2105   61.0304 C   0  0  0  0  0  0  0  0  0  0  0  0
    7.9352   38.4066   56.5217 C   0  0  0  0  0  0  0  0  0  0  0  0
    5.0486   43.3305   62.2404 C   0  0  0  0  0  0  0  0  0  0  0  0
    9.2731   38.4076   56.4782 C   0  0  0  0  0  0  0  0  0  0  0  0
    7.2443   42.9573   59.6768 C   0  0  0  0  0  0  0  0  0  0  0  0
  1  4  2  0
  1 11  1  0
  1 14  1  0
  2 10  1  0
  2 15  1  0
  2 21  1  0
  3 19  2  0
  4  7  1  0
  5 24  1  0
  5 27  1  0
  5 28  1  0
  6 27  2  0
  7 10  2  0
  8 19  1  0
  9 17  2  0
 10 12  1  0
 11 23  1  0
 12 14  2  0
 13 16  1  0
 13 17  1  0
 13 32  1  0
 15 18  2  0
 16 30  1  0
 16 34  2  0
 17 21  1  0
 18 19  1  0
 18 20  1  0
 20 21  2  0
 20 25  1  0
 22 24  2  0
 22 34  1  0
 24 26  1  0
 25 32  1  0
 26 30  2  0
 27 31  1  0
 28 29  1  0
 29 33  1  0
 31 33  1  0
M  END
$$$$
