MODEL 1
REMARK VINA RESULT:    -7.968      0.000      0.000
REMARK INTER + INTRA:         -10.965
REMARK INTER:                 -10.070
REMARK INTRA:                  -0.894
REMARK UNBOUND:                -0.667
REMARK Flexibility Score: inf
REMARK Active torsions [ 5 ] -> [ 5 ]
ROOT
ATOM      1  N1  LIG L   1       5.305  45.548  60.251  1.00  0.00    -0.227 N 
ATOM      2  O1  LIG L   1       5.980  44.274  58.528  1.00  0.00    -0.268 OA
ATOM      3  N2  LIG L   1       5.348  42.462  59.138  1.00  0.00    -0.266 N 
ATOM      4  N3  LIG L   1       4.440  45.644  61.019  1.00  0.00    -0.161 NA
ATOM      5  C1  LIG L   1       5.398  43.735  59.218  1.00  0.00     0.270 C 
ATOM      6  C2  LIG L   1       3.673  44.849  61.164  1.00  0.00     0.151 A 
ATOM      7  C3  LIG L   1       4.131  44.045  60.412  1.00  0.00     0.017 A 
ATOM      8  C4  LIG L   1       5.020  44.507  59.927  1.00  0.00     0.133 A 
ATOM      9  C5  LIG L   1       3.649  42.807  60.233  1.00  0.00     0.059 C 
ATOM     10  C6  LIG L   1       4.721  42.007  60.007  1.00  0.00     0.119 C 
ENDROOT
BRANCH    1   11
ATOM     11  C7  LIG L   1       6.152  46.412  60.074  1.00  0.00     0.066 A 
ATOM     12  C8  LIG L   1       7.740  48.358  59.838  1.00  0.00     0.120 A 
ATOM     13  C9  LIG L   1       8.145  47.366  60.568  1.00  0.00     0.048 A 
ATOM     14 C10  LIG L   1       6.742  48.335  59.277  1.00  0.00     0.048 A 
ATOM     15 C11  LIG L   1       7.298  46.501  60.680  1.00  0.00     0.031 A 
ATOM     16 C12  LIG L   1       6.034  47.294  59.449  1.00  0.00     0.031 A 
BRANCH   12   17
ATOM     17  O2  LIG L   1       8.443  49.240  59.874  1.00  0.00    -0.495 OA
ATOM     18 C13  LIG L   1       8.489  50.131  59.164  1.00  0.00     0.277 C 
ENDBRANCH   12   17
ENDBRANCH    1   11
BRANCH    6   19
ATOM     19 C14  LIG L   1       2.555  44.769  61.972  1.00  0.00     0.262 C 
ATOM     20  O3  LIG L   1       1.548  44.919  61.653  1.00  0.00    -0.269 OA
ATOM     21  N4  LIG L   1       2.776  44.600  62.980  1.00  0.00    -0.324 N 
ATOM     22  H1  LIG L   1       2.048  44.527  63.639  1.00  0.00     0.145 HD
ATOM     23  H2  LIG L   1       3.713  44.513  63.270  1.00  0.00     0.145 HD
ENDBRANCH    6   19
BRANCH    3   24
ATOM     24 C15  LIG L   1       5.933  41.503  58.306  1.00  0.00     0.037 A 
ATOM     25 C16  LIG L   1       5.229  41.201  57.132  1.00  0.00     0.025 A 
ATOM     26 C17  LIG L   1       6.991  40.643  58.726  1.00  0.00     0.025 A 
ATOM     27 C18  LIG L   1       5.639  39.985  56.404  1.00  0.00     0.025 A 
ATOM     28 C19  LIG L   1       7.359  39.442  58.021  1.00  0.00     0.025 A 
ATOM     29 C20  LIG L   1       6.668  39.143  56.903  1.00  0.00     0.036 A 
BRANCH   29   30
ATOM     30  N5  LIG L   1       6.911  38.122  56.295  1.00  0.00    -0.271 N 
ATOM     31 C21  LIG L   1       6.262  37.136  56.617  1.00  0.00     0.220 C 
ATOM     32 C22  LIG L   1       7.802  38.015  55.281  1.00  0.00     0.113 C 
ATOM     33  O4  LIG L   1       5.544  37.210  57.440  1.00  0.00    -0.275 OA
ATOM     34 C23  LIG L   1       6.446  35.871  56.002  1.00  0.00     0.096 C 
ATOM     35 C24  LIG L   1       8.150  36.781  54.900  1.00  0.00     0.020 C 
ATOM     36 C25  LIG L   1       7.013  36.008  54.797  1.00  0.00     0.011 C 
ENDBRANCH   29   30
ENDBRANCH    3   24
TORSDOF 5
ENDMDL
