examples/2p16/7_docked.pdbqt
 OpenBabel01072517173D

 34 38  0  0  0  0  0  0  0  0999 V2000
    5.3050   45.5480   60.2510 N   0  0  0  0  0  0  0  0  0  0  0  0
    5.9800   44.2740   58.5280 O   0  0  0  0  0  0  0  0  0  0  0  0
    5.3480   42.4620   59.1380 N   0  0  0  0  0  0  0  0  0  0  0  0
    4.4400   45.6440   61.0190 N   0  0  0  0  0  0  0  0  0  0  0  0
    5.3980   43.7350   59.2180 C   0  0  0  0  0  0  0  0  0  0  0  0
    3.6730   44.8490   61.1640 C   0  0  0  0  0  0  0  0  0  0  0  0
    4.1310   44.0450   60.4120 C   0  0  0  0  0  0  0  0  0  0  0  0
    5.0200   44.5070   59.9270 C   0  0  0  0  0  0  0  0  0  0  0  0
    3.6490   42.8070   60.2330 C   0  0  0  0  0  2  0  0  0  0  0  0
    4.7210   42.0070   60.0070 C   0  0  0  0  0  2  0  0  0  0  0  0
    6.1520   46.4120   60.0740 C   0  0  0  0  0  0  0  0  0  0  0  0
    7.7400   48.3580   59.8380 C   0  0  0  0  0  0  0  0  0  0  0  0
    8.1450   47.3660   60.5680 C   0  0  0  0  0  3  0  0  0  0  0  0
    6.7420   48.3350   59.2770 C   0  0  0  0  0  3  0  0  0  0  0  0
    7.2980   46.5010   60.6800 C   0  0  0  0  0  3  0  0  0  0  0  0
    6.0340   47.2940   59.4490 C   0  0  0  0  0  3  0  0  0  0  0  0
    8.4430   49.2400   59.8740 O   0  0  0  0  0  0  0  0  0  0  0  0
    8.4890   50.1310   59.1640 C   0  0  0  0  0  1  0  0  0  0  0  0
    2.5550   44.7690   61.9720 C   0  0  0  0  0  0  0  0  0  0  0  0
    1.5480   44.9190   61.6530 O   0  0  0  0  0  0  0  0  0  0  0  0
    2.7760   44.6000   62.9800 N   0  0  0  0  0  0  0  0  0  0  0  0
    5.9330   41.5030   58.3060 C   0  0  0  0  0  0  0  0  0  0  0  0
    5.2290   41.2010   57.1320 C   0  0  0  0  0  3  0  0  0  0  0  0
    6.9910   40.6430   58.7260 C   0  0  0  0  0  3  0  0  0  0  0  0
    5.6390   39.9850   56.4040 C   0  0  0  0  0  3  0  0  0  0  0  0
    7.3590   39.4420   58.0210 C   0  0  0  0  0  3  0  0  0  0  0  0
    6.6680   39.1430   56.9030 C   0  0  0  0  0  0  0  0  0  0  0  0
    6.9110   38.1220   56.2950 N   0  0  0  0  0  0  0  0  0  0  0  0
    6.2620   37.1360   56.6170 C   0  0  0  0  0  0  0  0  0  0  0  0
    7.8020   38.0150   55.2810 C   0  0  0  0  0  2  0  0  0  0  0  0
    5.5440   37.2100   57.4400 O   0  0  0  0  0  0  0  0  0  0  0  0
    6.4460   35.8710   56.0020 C   0  0  0  0  0  2  0  0  0  0  0  0
    8.1500   36.7810   54.9000 C   0  0  0  0  0  2  0  0  0  0  0  0
    7.0130   36.0080   54.7970 C   0  0  0  0  0  2  0  0  0  0  0  0
  1  4  1  0  0  0  0
  2  5  2  0  0  0  0
  3  5  1  0  0  0  0
  3 10  1  0  0  0  0
  4  6  2  0  0  0  0
  5  8  1  0  0  0  0
  6 19  1  0  0  0  0
  7  6  1  0  0  0  0
  8  1  1  0  0  0  0
  8  7  2  0  0  0  0
  9  7  1  0  0  0  0
 10  9  1  0  0  0  0
 11  1  1  0  0  0  0
 11 15  1  0  0  0  0
 12 17  1  0  0  0  0
 12 13  1  0  0  0  0
 13 15  2  0  0  0  0
 14 16  1  0  0  0  0
 14 12  2  0  0  0  0
 16 11  2  0  0  0  0
 18 17  1  0  0  0  0
 19 21  1  0  0  0  0
 20 19  2  0  0  0  0
 22 24  1  0  0  0  0
 22  3  1  0  0  0  0
 23 22  2  0  0  0  0
 25 27  2  0  0  0  0
 25 23  1  0  0  0  0
 26 24  2  0  0  0  0
 27 26  1  0  0  0  0
 28 29  1  0  0  0  0
 28 27  1  0  0  0  0
 29 31  2  0  0  0  0
 30 28  1  0  0  0  0
 32 29  1  0  0  0  0
 33 30  1  0  0  0  0
 34 33  1  0  0  0  0
 34 32  1  0  0  0  0
M  END
>  <MODEL>
1

>  <REMARK>
 VINA RESULT:    -7.968      0.000      0.000
 INTER + INTRA:         -10.965
 INTER:                 -10.070
 INTRA:                  -0.894
 UNBOUND:                -0.667
 Flexibility Score: inf
 Active torsions [ 5 ] -> [ 5 ]

>  <TORSDO>
F 5

$$$$
