REMARK Flexibility Score: inf
REMARK Active torsions [ 10 ] -> [ 10 ]
ROOT
ATOM      1  S1  LIG L   1     -31.414  11.503 -28.288  1.00  0.00    -0.253 SA
ATOM      2  C1  LIG L   1     -32.239  11.197 -29.492  1.00  0.00     0.061 C 
ATOM      3  H1  LIG L   1     -30.242  10.899 -27.955  1.00  0.00     0.082 HD
ENDROOT
BRANCH    1    4
ATOM      4  C2  LIG L   1     -32.460  11.159 -27.285  1.00  0.00     0.081 C 
BRANCH    4    5
ATOM      5  C3  LIG L   1     -33.568  11.417 -27.579  1.00  0.00     0.160 C 
ATOM      6  O1  LIG L   1     -34.154  12.323 -26.870  1.00  0.00    -0.347 OA
ATOM      7  C4  LIG L   1     -33.682  11.970 -28.647  1.00  0.00     0.177 C 
ATOM      8  C5  LIG L   1     -34.311  13.498 -27.202  1.00  0.00     0.253 C 
ATOM      9  C6  LIG L   1     -33.820  13.319 -28.336  1.00  0.00     0.195 C 
BRANCH    7   10
ATOM     10  O2  LIG L   1     -34.637  11.592 -29.144  1.00  0.00    -0.386 OA
ATOM     11  H2  LIG L   1     -35.391  11.748 -28.555  1.00  0.00     0.210 HD
ENDBRANCH    7   10
BRANCH    8   12
ATOM     12  N1  LIG L   1     -33.781  14.274 -26.466  1.00  0.00    -0.286 N 
ATOM     13  C7  LIG L   1     -34.126  15.296 -25.936  1.00  0.00     0.167 A 
ATOM     14  C8  LIG L   1     -32.787  14.094 -26.121  1.00  0.00     0.203 A 
ATOM     15  N2  LIG L   1     -35.132  15.690 -25.948  1.00  0.00    -0.216 NA
ATOM     16  C9  LIG L   1     -33.205  15.767 -25.401  1.00  0.00     0.147 A 
ATOM     17  N3  LIG L   1     -32.436  15.063 -25.553  1.00  0.00    -0.231 NA
ATOM     18 C10  LIG L   1     -35.118  16.821 -25.378  1.00  0.00     0.225 A 
ATOM     19 C11  LIG L   1     -33.244  16.869 -24.902  1.00  0.00     0.147 A 
ATOM     20  N4  LIG L   1     -34.220  17.368 -24.891  1.00  0.00    -0.219 NA
BRANCH   19   21
ATOM     21  N5  LIG L   1     -32.391  17.405 -24.419  1.00  0.00    -0.341 N 
ATOM     22  H3  LIG L   1     -32.525  18.304 -24.040  1.00  0.00     0.144 HD
ATOM     23  H4  LIG L   1     -31.504  16.979 -24.373  1.00  0.00     0.144 HD
ENDBRANCH   19   21
ENDBRANCH    8   12
BRANCH    9   24
ATOM     24  O3  LIG L   1     -34.478  13.931 -29.244  1.00  0.00    -0.385 OA
ATOM     25  H5  LIG L   1     -35.376  13.568 -29.293  1.00  0.00     0.210 HD
ENDBRANCH    9   24
ENDBRANCH    4    5
ENDBRANCH    1    4
BRANCH    1   26
ATOM     26 C12  LIG L   1     -31.018  13.055 -28.536  1.00  0.00     0.053 C 
BRANCH   26   27
ATOM     27 C13  LIG L   1     -29.900  13.530 -29.283  1.00  0.00     0.069 C 
BRANCH   27   28
ATOM     28 C14  LIG L   1     -29.591  13.111 -30.581  1.00  0.00     0.108 C 
ATOM     29  N6  LIG L   1     -28.396  13.628 -31.074  1.00  0.00     0.225 N 
ATOM     30  H6  LIG L   1     -27.637  13.398 -30.434  1.00  0.00     0.200 HD
ATOM     31  H7  LIG L   1     -28.474  14.642 -31.160  1.00  0.00     0.200 HD
ATOM     32  H8  LIG L   1     -28.203  13.224 -31.990  1.00  0.00     0.200 HD
BRANCH   28   33
ATOM     33 C15  LIG L   1     -30.613  13.461 -31.511  1.00  0.00     0.089 C 
ATOM     34  O4  LIG L   1     -31.489  14.143 -31.267  1.00  0.00    -0.544 OA
ATOM     35  O5  LIG L   1     -30.456  12.902 -32.619  1.00  0.00    -0.544 O 
ENDBRANCH   28   33
ENDBRANCH   27   28
ENDBRANCH   26   27
ENDBRANCH    1   26
TORSDOF 10
