REMARK Flexibility Score: inf
REMARK Active torsions [ 10 ] -> [ 10 ]
ROOT
ATOM      1  S1  LIG L   1     -31.408  11.500 -28.266  1.00  0.00    -0.253 SA
ATOM      2  C1  LIG L   1     -32.220  11.179 -29.479  1.00  0.00     0.061 C 
ATOM      3  H1  LIG L   1     -30.233  10.906 -27.927  1.00  0.00     0.082 HD
ENDROOT
BRANCH    1    4
ATOM      4  C2  LIG L   1     -32.465  11.134 -27.243  1.00  0.00     0.081 C 
BRANCH    4    5
ATOM      5  C3  LIG L   1     -33.614  11.411 -27.504  1.00  0.00     0.160 C 
ATOM      6  O1  LIG L   1     -34.137  12.277 -26.838  1.00  0.00    -0.347 OA
ATOM      7  C4  LIG L   1     -33.709  11.993 -28.592  1.00  0.00     0.177 C 
ATOM      8  C5  LIG L   1     -34.302  13.429 -27.220  1.00  0.00     0.253 C 
ATOM      9  C6  LIG L   1     -33.853  13.299 -28.339  1.00  0.00     0.195 C 
BRANCH    7   10
ATOM     10  O2  LIG L   1     -34.676  11.641 -29.095  1.00  0.00    -0.386 OA
ATOM     11  H2  LIG L   1     -35.430  11.830 -28.515  1.00  0.00     0.210 HD
ENDBRANCH    7   10
BRANCH    8   12
ATOM     12  N1  LIG L   1     -33.737  14.237 -26.454  1.00  0.00    -0.286 N 
ATOM     13  C7  LIG L   1     -34.061  15.291 -25.908  1.00  0.00     0.167 A 
ATOM     14  C8  LIG L   1     -32.784  14.081 -26.107  1.00  0.00     0.203 A 
ATOM     15  N2  LIG L   1     -35.054  15.771 -25.972  1.00  0.00    -0.216 NA
ATOM     16  C9  LIG L   1     -33.212  15.771 -25.393  1.00  0.00     0.147 A 
ATOM     17  N3  LIG L   1     -32.407  15.049 -25.547  1.00  0.00    -0.231 NA
ATOM     18 C10  LIG L   1     -35.091  16.885 -25.372  1.00  0.00     0.225 A 
ATOM     19 C11  LIG L   1     -33.230  16.880 -24.874  1.00  0.00     0.147 A 
ATOM     20  N4  LIG L   1     -34.208  17.379 -24.882  1.00  0.00    -0.219 NA
BRANCH   19   21
ATOM     21  N5  LIG L   1     -32.386  17.438 -24.394  1.00  0.00    -0.341 N 
ATOM     22  H3  LIG L   1     -32.542  18.332 -24.012  1.00  0.00     0.144 HD
ATOM     23  H4  LIG L   1     -31.489  17.035 -24.354  1.00  0.00     0.144 HD
ENDBRANCH   19   21
ENDBRANCH    8   12
BRANCH    9   24
ATOM     24  O3  LIG L   1     -34.534  13.950 -29.271  1.00  0.00    -0.385 OA
ATOM     25  H5  LIG L   1     -35.436  13.596 -29.319  1.00  0.00     0.210 HD
ENDBRANCH    9   24
ENDBRANCH    4    5
ENDBRANCH    1    4
BRANCH    1   26
ATOM     26 C12  LIG L   1     -31.006  13.039 -28.507  1.00  0.00     0.053 C 
BRANCH   26   27
ATOM     27 C13  LIG L   1     -29.880  13.517 -29.261  1.00  0.00     0.069 C 
BRANCH   27   28
ATOM     28 C14  LIG L   1     -29.582  13.117 -30.580  1.00  0.00     0.108 C 
ATOM     29  N6  LIG L   1     -28.401  13.625 -31.070  1.00  0.00     0.225 N 
ATOM     30  H6  LIG L   1     -27.642  13.400 -30.427  1.00  0.00     0.200 HD
ATOM     31  H7  LIG L   1     -28.479  14.638 -31.162  1.00  0.00     0.200 HD
ATOM     32  H8  LIG L   1     -28.207  13.214 -31.983  1.00  0.00     0.200 HD
BRANCH   28   33
ATOM     33 C15  LIG L   1     -30.577  13.469 -31.520  1.00  0.00     0.089 C 
ATOM     34  O4  LIG L   1     -31.474  14.155 -31.267  1.00  0.00    -0.544 OA
ATOM     35  O5  LIG L   1     -30.427  12.905 -32.626  1.00  0.00    -0.544 O 
ENDBRANCH   28   33
ENDBRANCH   27   28
ENDBRANCH   26   27
ENDBRANCH    1   26
TORSDOF 10
