REMARK Flexibility Score: inf
REMARK Active torsions [ 10 ] -> [ 10 ]
ROOT
ATOM      1  S1  LIG L   1     -31.397  11.504 -28.261  1.00  0.00    -0.253 SA
ATOM      2  C1  LIG L   1     -32.231  11.189 -29.473  1.00  0.00     0.061 C 
ATOM      3  H1  LIG L   1     -30.221  10.904 -27.932  1.00  0.00     0.082 HD
ENDROOT
BRANCH    1    4
ATOM      4  C2  LIG L   1     -32.465  11.154 -27.236  1.00  0.00     0.081 C 
BRANCH    4    5
ATOM      5  C3  LIG L   1     -33.624  11.437 -27.548  1.00  0.00     0.160 C 
ATOM      6  O1  LIG L   1     -34.142  12.269 -26.888  1.00  0.00    -0.347 OA
ATOM      7  C4  LIG L   1     -33.737  11.984 -28.613  1.00  0.00     0.177 C 
ATOM      8  C5  LIG L   1     -34.284  13.425 -27.225  1.00  0.00     0.253 C 
ATOM      9  C6  LIG L   1     -33.819  13.270 -28.362  1.00  0.00     0.195 C 
BRANCH    7   10
ATOM     10  O2  LIG L   1     -34.697  11.604 -29.127  1.00  0.00    -0.386 OA
ATOM     11  H2  LIG L   1     -35.460  11.777 -28.554  1.00  0.00     0.210 HD
ENDBRANCH    7   10
BRANCH    8   12
ATOM     12  N1  LIG L   1     -33.719  14.258 -26.466  1.00  0.00    -0.286 N 
ATOM     13  C7  LIG L   1     -34.056  15.297 -25.923  1.00  0.00     0.167 A 
ATOM     14  C8  LIG L   1     -32.781  14.088 -26.124  1.00  0.00     0.203 A 
ATOM     15  N2  LIG L   1     -35.055  15.757 -25.935  1.00  0.00    -0.216 NA
ATOM     16  C9  LIG L   1     -33.202  15.788 -25.403  1.00  0.00     0.147 A 
ATOM     17  N3  LIG L   1     -32.403  15.058 -25.556  1.00  0.00    -0.231 NA
ATOM     18 C10  LIG L   1     -35.091  16.865 -25.354  1.00  0.00     0.225 A 
ATOM     19 C11  LIG L   1     -33.245  16.851 -24.886  1.00  0.00     0.147 A 
ATOM     20  N4  LIG L   1     -34.222  17.346 -24.895  1.00  0.00    -0.219 NA
BRANCH   19   21
ATOM     21  N5  LIG L   1     -32.395  17.390 -24.415  1.00  0.00    -0.341 N 
ATOM     22  H3  LIG L   1     -32.538  18.276 -24.010  1.00  0.00     0.144 HD
ATOM     23  H4  LIG L   1     -31.499  16.982 -24.403  1.00  0.00     0.144 HD
ENDBRANCH   19   21
ENDBRANCH    8   12
BRANCH    9   24
ATOM     24  O3  LIG L   1     -34.473  13.886 -29.269  1.00  0.00    -0.385 OA
ATOM     25  H5  LIG L   1     -35.377  13.537 -29.310  1.00  0.00     0.210 HD
ENDBRANCH    9   24
ENDBRANCH    4    5
ENDBRANCH    1    4
BRANCH    1   26
ATOM     26 C12  LIG L   1     -31.018  13.050 -28.508  1.00  0.00     0.053 C 
BRANCH   26   27
ATOM     27 C13  LIG L   1     -29.884  13.530 -29.275  1.00  0.00     0.069 C 
BRANCH   27   28
ATOM     28 C14  LIG L   1     -29.583  13.128 -30.584  1.00  0.00     0.108 C 
ATOM     29  N6  LIG L   1     -28.398  13.620 -31.071  1.00  0.00     0.225 N 
ATOM     30  H6  LIG L   1     -27.643  13.386 -30.426  1.00  0.00     0.200 HD
ATOM     31  H7  LIG L   1     -28.463  14.633 -31.165  1.00  0.00     0.200 HD
ATOM     32  H8  LIG L   1     -28.206  13.205 -31.983  1.00  0.00     0.200 HD
BRANCH   28   33
ATOM     33 C15  LIG L   1     -30.587  13.482 -31.518  1.00  0.00     0.089 C 
ATOM     34  O4  LIG L   1     -31.462  14.173 -31.266  1.00  0.00    -0.544 OA
ATOM     35  O5  LIG L   1     -30.433  12.932 -32.616  1.00  0.00    -0.544 O 
ENDBRANCH   28   33
ENDBRANCH   27   28
ENDBRANCH   26   27
ENDBRANCH    1   26
TORSDOF 10
