REMARK Flexibility Score: inf
REMARK Active torsions [ 10 ] -> [ 10 ]
ROOT
ATOM      1  S1  LIG L   1     -31.412  11.510 -28.281  1.00  0.00    -0.253 SA
ATOM      2  C1  LIG L   1     -32.250  11.199 -29.486  1.00  0.00     0.061 C 
ATOM      3  H1  LIG L   1     -30.232  10.914 -27.962  1.00  0.00     0.082 HD
ENDROOT
BRANCH    1    4
ATOM      4  C2  LIG L   1     -32.468  11.146 -27.262  1.00  0.00     0.081 C 
BRANCH    4    5
ATOM      5  C3  LIG L   1     -33.581  11.411 -27.576  1.00  0.00     0.160 C 
ATOM      6  O1  LIG L   1     -34.163  12.310 -26.892  1.00  0.00    -0.347 OA
ATOM      7  C4  LIG L   1     -33.705  11.981 -28.660  1.00  0.00     0.177 C 
ATOM      8  C5  LIG L   1     -34.286  13.449 -27.216  1.00  0.00     0.253 C 
ATOM      9  C6  LIG L   1     -33.801  13.266 -28.363  1.00  0.00     0.195 C 
BRANCH    7   10
ATOM     10  O2  LIG L   1     -34.666  11.584 -29.170  1.00  0.00    -0.386 OA
ATOM     11  H2  LIG L   1     -35.425  11.723 -28.582  1.00  0.00     0.210 HD
ENDBRANCH    7   10
BRANCH    8   12
ATOM     12  N1  LIG L   1     -33.731  14.277 -26.457  1.00  0.00    -0.286 N 
ATOM     13  C7  LIG L   1     -34.102  15.302 -25.903  1.00  0.00     0.167 A 
ATOM     14  C8  LIG L   1     -32.774  14.101 -26.134  1.00  0.00     0.203 A 
ATOM     15  N2  LIG L   1     -35.123  15.735 -25.905  1.00  0.00    -0.216 NA
ATOM     16  C9  LIG L   1     -33.211  15.778 -25.406  1.00  0.00     0.147 A 
ATOM     17  N3  LIG L   1     -32.412  15.066 -25.573  1.00  0.00    -0.231 NA
ATOM     18 C10  LIG L   1     -35.137  16.848 -25.355  1.00  0.00     0.225 A 
ATOM     19 C11  LIG L   1     -33.256  16.862 -24.900  1.00  0.00     0.147 A 
ATOM     20  N4  LIG L   1     -34.232  17.354 -24.893  1.00  0.00    -0.219 NA
BRANCH   19   21
ATOM     21  N5  LIG L   1     -32.415  17.414 -24.406  1.00  0.00    -0.341 N 
ATOM     22  H3  LIG L   1     -32.571  18.307 -24.021  1.00  0.00     0.144 HD
ATOM     23  H4  LIG L   1     -31.520  17.006 -24.357  1.00  0.00     0.144 HD
ENDBRANCH   19   21
ENDBRANCH    8   12
BRANCH    9   24
ATOM     24  O3  LIG L   1     -34.433  13.850 -29.250  1.00  0.00    -0.385 OA
ATOM     25  H5  LIG L   1     -35.330  13.483 -29.303  1.00  0.00     0.210 HD
ENDBRANCH    9   24
ENDBRANCH    4    5
ENDBRANCH    1    4
BRANCH    1   26
ATOM     26 C12  LIG L   1     -31.021  13.053 -28.513  1.00  0.00     0.053 C 
BRANCH   26   27
ATOM     27 C13  LIG L   1     -29.918  13.531 -29.271  1.00  0.00     0.069 C 
BRANCH   27   28
ATOM     28 C14  LIG L   1     -29.615  13.120 -30.581  1.00  0.00     0.108 C 
ATOM     29  N6  LIG L   1     -28.411  13.634 -31.072  1.00  0.00     0.225 N 
ATOM     30  H6  LIG L   1     -27.654  13.394 -30.432  1.00  0.00     0.200 HD
ATOM     31  H7  LIG L   1     -28.481  14.648 -31.151  1.00  0.00     0.200 HD
ATOM     32  H8  LIG L   1     -28.220  13.233 -31.990  1.00  0.00     0.200 HD
BRANCH   28   33
ATOM     33 C15  LIG L   1     -30.628  13.483 -31.508  1.00  0.00     0.089 C 
ATOM     34  O4  LIG L   1     -31.495  14.172 -31.267  1.00  0.00    -0.544 OA
ATOM     35  O5  LIG L   1     -30.460  12.894 -32.625  1.00  0.00    -0.544 O 
ENDBRANCH   28   33
ENDBRANCH   27   28
ENDBRANCH   26   27
ENDBRANCH    1   26
TORSDOF 10
