REMARK Flexibility Score: inf
REMARK Active torsions [ 10 ] -> [ 10 ]
ROOT
ATOM      1  S1  LIG L   1     -31.400  11.519 -28.264  1.00  0.00    -0.253 SA
ATOM      2  C1  LIG L   1     -32.209  11.190 -29.476  1.00  0.00     0.061 C 
ATOM      3  H1  LIG L   1     -30.223  10.922 -27.935  1.00  0.00     0.082 HD
ENDROOT
BRANCH    1    4
ATOM      4  C2  LIG L   1     -32.433  11.162 -27.233  1.00  0.00     0.081 C 
BRANCH    4    5
ATOM      5  C3  LIG L   1     -33.605  11.464 -27.543  1.00  0.00     0.160 C 
ATOM      6  O1  LIG L   1     -34.194  12.334 -26.857  1.00  0.00    -0.347 OA
ATOM      7  C4  LIG L   1     -33.710  12.000 -28.652  1.00  0.00     0.177 C 
ATOM      8  C5  LIG L   1     -34.327  13.473 -27.178  1.00  0.00     0.253 C 
ATOM      9  C6  LIG L   1     -33.834  13.299 -28.341  1.00  0.00     0.195 C 
BRANCH    7   10
ATOM     10  O2  LIG L   1     -34.643  11.606 -29.177  1.00  0.00    -0.386 OA
ATOM     11  H2  LIG L   1     -35.419  11.753 -28.613  1.00  0.00     0.210 HD
ENDBRANCH    7   10
BRANCH    8   12
ATOM     12  N1  LIG L   1     -33.802  14.252 -26.448  1.00  0.00    -0.286 N 
ATOM     13  C7  LIG L   1     -34.150  15.290 -25.929  1.00  0.00     0.167 A 
ATOM     14  C8  LIG L   1     -32.801  14.085 -26.129  1.00  0.00     0.203 A 
ATOM     15  N2  LIG L   1     -35.136  15.689 -25.932  1.00  0.00    -0.216 NA
ATOM     16  C9  LIG L   1     -33.210  15.794 -25.394  1.00  0.00     0.147 A 
ATOM     17  N3  LIG L   1     -32.406  15.082 -25.557  1.00  0.00    -0.231 NA
ATOM     18 C10  LIG L   1     -35.115  16.815 -25.344  1.00  0.00     0.225 A 
ATOM     19 C11  LIG L   1     -33.240  16.858 -24.875  1.00  0.00     0.147 A 
ATOM     20  N4  LIG L   1     -34.242  17.348 -24.888  1.00  0.00    -0.219 NA
BRANCH   19   21
ATOM     21  N5  LIG L   1     -32.395  17.403 -24.401  1.00  0.00    -0.341 N 
ATOM     22  H3  LIG L   1     -32.544  18.289 -23.999  1.00  0.00     0.144 HD
ATOM     23  H4  LIG L   1     -31.497  17.000 -24.384  1.00  0.00     0.144 HD
ENDBRANCH   19   21
ENDBRANCH    8   12
BRANCH    9   24
ATOM     24  O3  LIG L   1     -34.448  13.904 -29.236  1.00  0.00    -0.385 OA
ATOM     25  H5  LIG L   1     -35.345  13.544 -29.313  1.00  0.00     0.210 HD
ENDBRANCH    9   24
ENDBRANCH    4    5
ENDBRANCH    1    4
BRANCH    1   26
ATOM     26 C12  LIG L   1     -31.018  13.049 -28.506  1.00  0.00     0.053 C 
BRANCH   26   27
ATOM     27 C13  LIG L   1     -29.897  13.525 -29.260  1.00  0.00     0.069 C 
BRANCH   27   28
ATOM     28 C14  LIG L   1     -29.583  13.111 -30.589  1.00  0.00     0.108 C 
ATOM     29  N6  LIG L   1     -28.403  13.628 -31.065  1.00  0.00     0.225 N 
ATOM     30  H6  LIG L   1     -27.646  13.396 -30.421  1.00  0.00     0.200 HD
ATOM     31  H7  LIG L   1     -28.484  14.642 -31.143  1.00  0.00     0.200 HD
ATOM     32  H8  LIG L   1     -28.203  13.231 -31.982  1.00  0.00     0.200 HD
BRANCH   28   33
ATOM     33 C15  LIG L   1     -30.613  13.459 -31.519  1.00  0.00     0.089 C 
ATOM     34  O4  LIG L   1     -31.482  14.154 -31.282  1.00  0.00    -0.544 OA
ATOM     35  O5  LIG L   1     -30.449  12.897 -32.622  1.00  0.00    -0.544 O 
ENDBRANCH   28   33
ENDBRANCH   27   28
ENDBRANCH   26   27
ENDBRANCH    1   26
TORSDOF 10
