REMARK Flexibility Score: inf
REMARK Active torsions [ 10 ] -> [ 10 ]
ROOT
ATOM      1  S1  LIG L   1     -31.410  11.517 -28.276  1.00  0.00    -0.253 SA
ATOM      2  C1  LIG L   1     -32.225  11.178 -29.479  1.00  0.00     0.061 C 
ATOM      3  H1  LIG L   1     -30.231  10.926 -27.943  1.00  0.00     0.082 HD
ENDROOT
BRANCH    1    4
ATOM      4  C2  LIG L   1     -32.468  11.164 -27.245  1.00  0.00     0.081 C 
BRANCH    4    5
ATOM      5  C3  LIG L   1     -33.621  11.422 -27.521  1.00  0.00     0.160 C 
ATOM      6  O1  LIG L   1     -34.157  12.284 -26.858  1.00  0.00    -0.347 OA
ATOM      7  C4  LIG L   1     -33.722  11.997 -28.613  1.00  0.00     0.177 C 
ATOM      8  C5  LIG L   1     -34.312  13.442 -27.229  1.00  0.00     0.253 C 
ATOM      9  C6  LIG L   1     -33.845  13.305 -28.354  1.00  0.00     0.195 C 
BRANCH    7   10
ATOM     10  O2  LIG L   1     -34.675  11.642 -29.105  1.00  0.00    -0.386 OA
ATOM     11  H2  LIG L   1     -35.428  11.826 -28.522  1.00  0.00     0.210 HD
ENDBRANCH    7   10
BRANCH    8   12
ATOM     12  N1  LIG L   1     -33.753  14.241 -26.469  1.00  0.00    -0.286 N 
ATOM     13  C7  LIG L   1     -34.091  15.300 -25.954  1.00  0.00     0.167 A 
ATOM     14  C8  LIG L   1     -32.786  14.068 -26.114  1.00  0.00     0.203 A 
ATOM     15  N2  LIG L   1     -35.097  15.776 -26.007  1.00  0.00    -0.216 NA
ATOM     16  C9  LIG L   1     -33.213  15.769 -25.411  1.00  0.00     0.147 A 
ATOM     17  N3  LIG L   1     -32.419  15.031 -25.552  1.00  0.00    -0.231 NA
ATOM     18 C10  LIG L   1     -35.120  16.857 -25.416  1.00  0.00     0.225 A 
ATOM     19 C11  LIG L   1     -33.237  16.880 -24.893  1.00  0.00     0.147 A 
ATOM     20  N4  LIG L   1     -34.231  17.375 -24.918  1.00  0.00    -0.219 NA
BRANCH   19   21
ATOM     21  N5  LIG L   1     -32.410  17.418 -24.408  1.00  0.00    -0.341 N 
ATOM     22  H3  LIG L   1     -32.561  18.313 -24.027  1.00  0.00     0.144 HD
ATOM     23  H4  LIG L   1     -31.519  17.004 -24.354  1.00  0.00     0.144 HD
ENDBRANCH   19   21
ENDBRANCH    8   12
BRANCH    9   24
ATOM     24  O3  LIG L   1     -34.458  13.924 -29.265  1.00  0.00    -0.385 OA
ATOM     25  H5  LIG L   1     -35.358  13.572 -29.346  1.00  0.00     0.210 HD
ENDBRANCH    9   24
ENDBRANCH    4    5
ENDBRANCH    1    4
BRANCH    1   26
ATOM     26 C12  LIG L   1     -31.008  13.042 -28.518  1.00  0.00     0.053 C 
BRANCH   26   27
ATOM     27 C13  LIG L   1     -29.899  13.516 -29.281  1.00  0.00     0.069 C 
BRANCH   27   28
ATOM     28 C14  LIG L   1     -29.583  13.121 -30.593  1.00  0.00     0.108 C 
ATOM     29  N6  LIG L   1     -28.413  13.623 -31.075  1.00  0.00     0.225 N 
ATOM     30  H6  LIG L   1     -27.656  13.399 -30.429  1.00  0.00     0.200 HD
ATOM     31  H7  LIG L   1     -28.491  14.636 -31.169  1.00  0.00     0.200 HD
ATOM     32  H8  LIG L   1     -28.216  13.211 -31.987  1.00  0.00     0.200 HD
BRANCH   28   33
ATOM     33 C15  LIG L   1     -30.583  13.465 -31.527  1.00  0.00     0.089 C 
ATOM     34  O4  LIG L   1     -31.476  14.148 -31.270  1.00  0.00    -0.544 OA
ATOM     35  O5  LIG L   1     -30.441  12.929 -32.619  1.00  0.00    -0.544 O 
ENDBRANCH   28   33
ENDBRANCH   27   28
ENDBRANCH   26   27
ENDBRANCH    1   26
TORSDOF 10
