REMARK Flexibility Score: inf
REMARK Active torsions [ 10 ] -> [ 10 ]
ROOT
ATOM      1  S1  LIG L   1     -31.399  11.528 -28.270  1.00  0.00    -0.253 SA
ATOM      2  C1  LIG L   1     -32.226  11.211 -29.462  1.00  0.00     0.061 C 
ATOM      3  H1  LIG L   1     -30.219  10.946 -27.925  1.00  0.00     0.082 HD
ENDROOT
BRANCH    1    4
ATOM      4  C2  LIG L   1     -32.473  11.162 -27.255  1.00  0.00     0.081 C 
BRANCH    4    5
ATOM      5  C3  LIG L   1     -33.628  11.435 -27.536  1.00  0.00     0.160 C 
ATOM      6  O1  LIG L   1     -34.160  12.276 -26.870  1.00  0.00    -0.347 OA
ATOM      7  C4  LIG L   1     -33.745  12.000 -28.616  1.00  0.00     0.177 C 
ATOM      8  C5  LIG L   1     -34.305  13.404 -27.212  1.00  0.00     0.253 C 
ATOM      9  C6  LIG L   1     -33.826  13.266 -28.370  1.00  0.00     0.195 C 
BRANCH    7   10
ATOM     10  O2  LIG L   1     -34.684  11.622 -29.118  1.00  0.00    -0.386 OA
ATOM     11  H2  LIG L   1     -35.447  11.785 -28.541  1.00  0.00     0.210 HD
ENDBRANCH    7   10
BRANCH    8   12
ATOM     12  N1  LIG L   1     -33.727  14.235 -26.432  1.00  0.00    -0.286 N 
ATOM     13  C7  LIG L   1     -34.065  15.293 -25.917  1.00  0.00     0.167 A 
ATOM     14  C8  LIG L   1     -32.796  14.081 -26.112  1.00  0.00     0.203 A 
ATOM     15  N2  LIG L   1     -35.059  15.766 -25.932  1.00  0.00    -0.216 NA
ATOM     16  C9  LIG L   1     -33.196  15.808 -25.407  1.00  0.00     0.147 A 
ATOM     17  N3  LIG L   1     -32.417  15.073 -25.548  1.00  0.00    -0.231 NA
ATOM     18 C10  LIG L   1     -35.092  16.867 -25.350  1.00  0.00     0.225 A 
ATOM     19 C11  LIG L   1     -33.224  16.862 -24.917  1.00  0.00     0.147 A 
ATOM     20  N4  LIG L   1     -34.212  17.361 -24.899  1.00  0.00    -0.219 NA
BRANCH   19   21
ATOM     21  N5  LIG L   1     -32.383  17.374 -24.455  1.00  0.00    -0.341 N 
ATOM     22  H3  LIG L   1     -32.506  18.269 -24.065  1.00  0.00     0.144 HD
ATOM     23  H4  LIG L   1     -31.499  16.942 -24.428  1.00  0.00     0.144 HD
ENDBRANCH   19   21
ENDBRANCH    8   12
BRANCH    9   24
ATOM     24  O3  LIG L   1     -34.453  13.880 -29.267  1.00  0.00    -0.385 OA
ATOM     25  H5  LIG L   1     -35.356  13.532 -29.326  1.00  0.00     0.210 HD
ENDBRANCH    9   24
ENDBRANCH    4    5
ENDBRANCH    1    4
BRANCH    1   26
ATOM     26 C12  LIG L   1     -31.022  13.039 -28.526  1.00  0.00     0.053 C 
BRANCH   26   27
ATOM     27 C13  LIG L   1     -29.894  13.519 -29.302  1.00  0.00     0.069 C 
BRANCH   27   28
ATOM     28 C14  LIG L   1     -29.562  13.123 -30.602  1.00  0.00     0.108 C 
ATOM     29  N6  LIG L   1     -28.390  13.629 -31.073  1.00  0.00     0.225 N 
ATOM     30  H6  LIG L   1     -27.634  13.387 -30.433  1.00  0.00     0.200 HD
ATOM     31  H7  LIG L   1     -28.462  14.643 -31.146  1.00  0.00     0.200 HD
ATOM     32  H8  LIG L   1     -28.195  13.234 -31.993  1.00  0.00     0.200 HD
BRANCH   28   33
ATOM     33 C15  LIG L   1     -30.599  13.479 -31.522  1.00  0.00     0.089 C 
ATOM     34  O4  LIG L   1     -31.454  14.151 -31.282  1.00  0.00    -0.544 OA
ATOM     35  O5  LIG L   1     -30.422  12.920 -32.618  1.00  0.00    -0.544 O 
ENDBRANCH   28   33
ENDBRANCH   27   28
ENDBRANCH   26   27
ENDBRANCH    1   26
TORSDOF 10
