REMARK Flexibility Score: inf
REMARK Active torsions [ 10 ] -> [ 10 ]
ROOT
ATOM      1  S1  LIG L   1     -31.407  11.500 -28.263  1.00  0.00    -0.253 SA
ATOM      2  C1  LIG L   1     -32.201  11.195 -29.469  1.00  0.00     0.061 C 
ATOM      3  H1  LIG L   1     -30.244  10.896 -27.901  1.00  0.00     0.082 HD
ENDROOT
BRANCH    1    4
ATOM      4  C2  LIG L   1     -32.455  11.146 -27.227  1.00  0.00     0.081 C 
BRANCH    4    5
ATOM      5  C3  LIG L   1     -33.621  11.418 -27.531  1.00  0.00     0.160 C 
ATOM      6  O1  LIG L   1     -34.158  12.266 -26.868  1.00  0.00    -0.347 OA
ATOM      7  C4  LIG L   1     -33.741  11.984 -28.612  1.00  0.00     0.177 C 
ATOM      8  C5  LIG L   1     -34.294  13.422 -27.226  1.00  0.00     0.253 C 
ATOM      9  C6  LIG L   1     -33.837  13.279 -28.348  1.00  0.00     0.195 C 
BRANCH    7   10
ATOM     10  O2  LIG L   1     -34.671  11.605 -29.111  1.00  0.00    -0.386 OA
ATOM     11  H2  LIG L   1     -35.435  11.761 -28.534  1.00  0.00     0.210 HD
ENDBRANCH    7   10
BRANCH    8   12
ATOM     12  N1  LIG L   1     -33.735  14.236 -26.462  1.00  0.00    -0.286 N 
ATOM     13  C7  LIG L   1     -34.089  15.305 -25.925  1.00  0.00     0.167 A 
ATOM     14  C8  LIG L   1     -32.801  14.080 -26.118  1.00  0.00     0.203 A 
ATOM     15  N2  LIG L   1     -35.087  15.765 -25.948  1.00  0.00    -0.216 NA
ATOM     16  C9  LIG L   1     -33.208  15.777 -25.399  1.00  0.00     0.147 A 
ATOM     17  N3  LIG L   1     -32.424  15.066 -25.537  1.00  0.00    -0.231 NA
ATOM     18 C10  LIG L   1     -35.125  16.854 -25.374  1.00  0.00     0.225 A 
ATOM     19 C11  LIG L   1     -33.232  16.856 -24.886  1.00  0.00     0.147 A 
ATOM     20  N4  LIG L   1     -34.233  17.351 -24.888  1.00  0.00    -0.219 NA
BRANCH   19   21
ATOM     21  N5  LIG L   1     -32.361  17.383 -24.401  1.00  0.00    -0.341 N 
ATOM     22  H3  LIG L   1     -32.484  18.275 -24.005  1.00  0.00     0.144 HD
ATOM     23  H4  LIG L   1     -31.477  16.950 -24.374  1.00  0.00     0.144 HD
ENDBRANCH   19   21
ENDBRANCH    8   12
BRANCH    9   24
ATOM     24  O3  LIG L   1     -34.464  13.906 -29.264  1.00  0.00    -0.385 OA
ATOM     25  H5  LIG L   1     -35.367  13.559 -29.333  1.00  0.00     0.210 HD
ENDBRANCH    9   24
ENDBRANCH    4    5
ENDBRANCH    1    4
BRANCH    1   26
ATOM     26 C12  LIG L   1     -31.028  13.024 -28.541  1.00  0.00     0.053 C 
BRANCH   26   27
ATOM     27 C13  LIG L   1     -29.901  13.505 -29.312  1.00  0.00     0.069 C 
BRANCH   27   28
ATOM     28 C14  LIG L   1     -29.573  13.107 -30.597  1.00  0.00     0.108 C 
ATOM     29  N6  LIG L   1     -28.402  13.620 -31.061  1.00  0.00     0.225 N 
ATOM     30  H6  LIG L   1     -27.649  13.385 -30.415  1.00  0.00     0.200 HD
ATOM     31  H7  LIG L   1     -28.482  14.634 -31.138  1.00  0.00     0.200 HD
ATOM     32  H8  LIG L   1     -28.198  13.224 -31.979  1.00  0.00     0.200 HD
BRANCH   28   33
ATOM     33 C15  LIG L   1     -30.607  13.450 -31.519  1.00  0.00     0.089 C 
ATOM     34  O4  LIG L   1     -31.483  14.154 -31.255  1.00  0.00    -0.544 OA
ATOM     35  O5  LIG L   1     -30.437  12.892 -32.613  1.00  0.00    -0.544 O 
ENDBRANCH   28   33
ENDBRANCH   27   28
ENDBRANCH   26   27
ENDBRANCH    1   26
TORSDOF 10
