REMARK Flexibility Score: inf
REMARK Active torsions [ 10 ] -> [ 10 ]
ROOT
ATOM      1  S1  LIG L   1     -31.029  11.185 -28.367  1.00  0.00    -0.253 SA
ATOM      2  C1  LIG L   1     -31.975  10.765 -29.821  1.00  0.00     0.061 C 
ATOM      3  H1  LIG L   1     -29.852  10.568 -28.073  1.00  0.00     0.082 HD
ENDROOT
BRANCH    1    4
ATOM      4  C2  LIG L   1     -32.233  10.789 -27.090  1.00  0.00     0.081 C 
BRANCH    4    5
ATOM      5  C3  LIG L   1     -33.678  11.013 -27.487  1.00  0.00     0.160 C 
ATOM      6  O1  LIG L   1     -34.332  11.906 -26.557  1.00  0.00    -0.347 OA
ATOM      7  C4  LIG L   1     -33.830  11.649 -28.858  1.00  0.00     0.177 C 
ATOM      8  C5  LIG L   1     -34.440  13.239 -27.133  1.00  0.00     0.253 C 
ATOM      9  C6  LIG L   1     -33.879  13.155 -28.545  1.00  0.00     0.195 C 
BRANCH    7   10
ATOM     10  O2  LIG L   1     -35.028  11.132 -29.446  1.00  0.00    -0.386 OA
ATOM     11  H2  LIG L   1     -35.775  11.287 -28.848  1.00  0.00     0.210 HD
ENDBRANCH    7   10
BRANCH    8   12
ATOM     12  N1  LIG L   1     -33.731  14.156 -26.240  1.00  0.00    -0.286 N 
ATOM     13  C7  LIG L   1     -34.148  15.350 -25.698  1.00  0.00     0.167 A 
ATOM     14  C8  LIG L   1     -32.446  13.946 -25.788  1.00  0.00     0.203 A 
ATOM     15  N2  LIG L   1     -35.372  15.908 -25.721  1.00  0.00    -0.216 NA
ATOM     16  C9  LIG L   1     -33.000  15.890 -25.128  1.00  0.00     0.147 A 
ATOM     17  N3  LIG L   1     -31.949  15.002 -25.189  1.00  0.00    -0.231 NA
ATOM     18 C10  LIG L   1     -35.355  17.107 -25.076  1.00  0.00     0.225 A 
ATOM     19 C11  LIG L   1     -33.090  17.183 -24.590  1.00  0.00     0.147 A 
ATOM     20  N4  LIG L   1     -34.307  17.771 -24.541  1.00  0.00    -0.219 NA
BRANCH   19   21
ATOM     21  N5  LIG L   1     -31.992  17.871 -24.089  1.00  0.00    -0.341 N 
ATOM     22  H3  LIG L   1     -32.104  18.778 -23.721  1.00  0.00     0.144 HD
ATOM     23  H4  LIG L   1     -31.101  17.453 -24.102  1.00  0.00     0.144 HD
ENDBRANCH   19   21
ENDBRANCH    8   12
BRANCH    9   24
ATOM     24  O3  LIG L   1     -34.640  13.858 -29.537  1.00  0.00    -0.385 OA
ATOM     25  H5  LIG L   1     -35.536  13.490 -29.577  1.00  0.00     0.210 HD
ENDBRANCH    9   24
ENDBRANCH    4    5
ENDBRANCH    1    4
BRANCH    1   26
ATOM     26 C12  LIG L   1     -30.622  12.909 -28.613  1.00  0.00     0.053 C 
BRANCH   26   27
ATOM     27 C13  LIG L   1     -29.442  13.433 -29.471  1.00  0.00     0.069 C 
BRANCH   27   28
ATOM     28 C14  LIG L   1     -29.158  12.995 -30.935  1.00  0.00     0.108 C 
ATOM     29  N6  LIG L   1     -27.853  13.590 -31.432  1.00  0.00     0.225 N 
ATOM     30  H6  LIG L   1     -27.100  13.339 -30.792  1.00  0.00     0.200 HD
ATOM     31  H7  LIG L   1     -27.938  14.606 -31.475  1.00  0.00     0.200 HD
ATOM     32  H8  LIG L   1     -27.646  13.226 -32.362  1.00  0.00     0.200 HD
BRANCH   28   33
ATOM     33 C15  LIG L   1     -30.230  13.429 -31.962  1.00  0.00     0.089 C 
ATOM     34  O4  LIG L   1     -31.143  14.203 -31.741  1.00  0.00    -0.544 OA
ATOM     35  O5  LIG L   1     -30.063  12.797 -33.159  1.00  0.00    -0.544 O 
ENDBRANCH   28   33
ENDBRANCH   27   28
ENDBRANCH   26   27
ENDBRANCH    1   26
TORSDOF 10
